THERMO ALL
300.000  1000.000  5000.000
I                 J 6/82I   1    0    0    0G   200.000  6000.000 1000.        1
 2.61667712E+00-2.66010320E-04 1.86060150E-07-3.81927472E-11 2.52036053E-15    2
 1.20582790E+04 6.87896653E+00 2.50041683E+00-4.48046831E-06 1.69962536E-08    3
-2.67708030E-11 1.48927452E-14 1.20947990E+04 7.49816581E+00 1.28402035E+04    4
I2 gas            tpis89I  2.   0.   0.   0.G   200.000  6000.000 1000.        1
 4.56588102E+00-3.42229361E-04 4.84410977E-07-1.42632157E-10 1.14951099E-14    2
 6.16023838E+03 5.41958286E+00 3.87234634E+00 3.64265414E-03-7.95349191E-06    3
 7.82149773E-09-2.80608071E-12 6.24644830E+03 8.49410267E+00 7.50675626E+03    4
HI                j 9/61H  1.I  1.   0.   0.G   200.000  6000.000 1000.        1
 2.97348457E+00 1.43564535E-03-5.02266380E-07 8.15769578E-11-4.90179013E-15    2
 2.25405142E+03 7.52526168E+00 3.55499590E+00-3.48919962E-04 2.02666229E-07    3
 1.78572096E-09-1.21092442E-12 2.14501374E+03 4.67388039E+00 3.19417500E+03    4
C2H5I             ATcT/AC  2.H  5.I  1.   0.G   200.000  6000.000 1000.        1
 7.97461860E+00 1.28549646E-02-4.59993101E-06 7.40450718E-10-4.42307467E-14    2
-4.37826965E+03-1.45972741E+01 2.63041302E+00 1.89595239E-02 1.17450857E-05    3
-3.10554440E-08 1.46462936E-11-2.52381380E+03 1.49681231E+01-8.47554456E+02    4
C2H3I Iodoethyle  T 6/11C  2.H  3.I  1.   0.G   200.000  6000.000 1000.        1
 6.44273647E+00 8.41887780E-03-3.00447900E-06 4.82844717E-10-2.88126081E-14    2
 1.30010205E+04-4.03486413E+00 2.74108792E+00 1.25141822E-02 8.60970302E-06    3
-2.16359126E-08 1.00821068E-11 1.42911282E+04 1.64780120E+01 1.57026692E+04    4

KR  REF ELEMENT   g 8/97KR  1    0    0    0G   200.000  6000.000 1000.        1
 2.50001436E+00-2.78190281E-08 1.74071629E-11-4.31400304E-15 3.66743374E-19    2
-7.45380247E+02 5.49087778E+00 2.50000000E+00 0.00000000E+00 0.00000000E+00    3
 0.00000000E+00 0.00000000E+00-7.45375000E+02 5.49095651E+00 0.00000000E+00    4

!§§§§§§§§§§§§§§§§§§§§§§§§§§§§§§§§§§§§§§§§§§§§§§§§§§§§§§§§§§§§§§§§§§§§§§§§§§§§§§§
!§§§§§§§§§§§§§§§§§§     Thermodata Dagaut for CH3CHO     §§§§§§§§§§§§§§§§§§§§§§§
!§§§§§§§§§§§§§§§§§§§§§§§§§§§§§§§§§§§§§§§§§§§§§§§§§§§§§§§§§§§§§§§§§§§§§§§§§§§§§§§
!! Thermo Sivaramakrishnan
!CH3CHO                 0C   2     O  1 H  4 0G   500.000 2500.000 1000.00       1
CH3CHO                  C   2H   4O   10   0G   500.000 2500.000 1000.00       1
 0.12944297E+01 0.20156228E-01-0.10664726E-04 0.27851250E-08-0.29060103E-12    2
-0.20854004E+05 0.18713217E+02 0.73533450E+00 0.21943147E-01-0.13001320E-04    3
 0.43339361E-08-0.73064215E-12-0.20708698E+05 0.21550428E+02                   4
!CH2CHOH                0C   2      O  1 H  4 0G   500.000 2500.000 1000.00       1
CH2CHOH                 C   2H   4O   10   0G   500.000 2500.000 1000.00       1
 0.51035565E+01 0.13601888E-01-0.63205609E-05 0.14714006E-08-0.13892731E-12    2
-0.17204624E+05-0.18053199E+01 0.24472714E+00 0.33922763E-01-0.38558817E-04    3
 0.24420604E-07-0.63119208E-11-0.16262849E+05 0.21450051E+02                   4
CHCHOH                  H  3 C  2 O  1      G   200.0   3000.0   1000.0        1
 8.51857227E+00 5.78657814E-03-2.04179011E-06 3.26941186E-10-1.81221891E-14    2
 1.24711304E+04-1.96767610E+01 1.20387338E+00 2.32941538E-02-3.70046053E-06    3
-2.16775164E-08 1.34521291E-11 1.43919958E+04 1.81404048E+01                   4
CH3CHOH                 H  5 C  2 O  1      G   200.0   3000.0   1000.0        1
 4.47526705E+00 1.71732695E-02-7.96309840E-06 1.80336068E-09-1.61822914E-13    2
-9.03563932E+03 3.50393420E+00 4.90188130E+00 2.20897251E-03 4.13987202E-05    3
-5.55440042E-08 2.23614061E-11-8.60184919E+03 4.32535611E+00                   4
CH3CH2CHOH              H  7 C  3 O  1      G   200.0   3000.0   1000.0        1
 5.57435776E+00 2.54233367E-02-1.20266113E-05 2.77260725E-09-2.52771351E-13    2
-1.21708810E+04 8.09801078E-02 5.19613442E+00 9.68758216E-03 4.67507423E-05    3
-6.85477320E-08 2.84041922E-11-1.14185394E+04 5.64993765E+00                   4
CH3CH(OH)CH2            H  7 C  3 O  1      G   200.0   3000.0   1000.0        1
 6.37566107E+00 2.41151246E-02-1.12544941E-05 2.57111115E-09-2.33078473E-13    2
-1.05118586E+04-4.32024366E+00 4.35704920E+00 2.25954618E-02 1.12530390E-05    3
-3.13049712E-08 1.46737455E-11-9.74827050E+03 7.45505092E+00                   4
CH3CHCH2                H  6 C  3 O  0      G   200.0   3000.0   1000.0        1
 2.43048844E+00 2.38960302E-02-1.14689437E-05 2.67392899E-09-2.45937061E-13    2
 3.69862621E+02 1.10623092E+01 3.85642389E+00 3.15498381E-03 5.02746480E-05    3
-6.64190756E-08 2.64185868E-11 6.73599516E+02 7.44641719E+00                   4



C2H4O              SDT18 H  4 O  1 C  2     G    300.00   5000.00 1200.00      1
+5.92474075E+00+1.11210128E-02-3.74358017E-06+5.54179011E-10-2.95531435E-14    2
-9.30301665E+03-9.37723207E+00-8.97502490E-01+2.59174406E-02-1.20355905E-05    3
-6.59465277E-10+1.46745789E-12-7.10941012E+03+2.71305394E+01                   4
CH3CO                   C   2H   3O   10   0G   300.00   5000.00  1000.00      1
 0.51153110E+01 0.98613270E-02-0.39464200E-05 0.72974800E-09-0.50605210E-13    2
-0.35811130E+04-0.90078660E+00 0.63079430E+01-0.12387940E-01 0.58094930E-04    3
-0.63043300E-07 0.22737730E-10-0.29439700E+04-0.23500130E+01                   4
C2H5OH                  C   2H   6O   10   0G   300.00   5000.0   1000.00      1
 0.65624365E+01 0.15204222E-01-0.53896795E-05 0.86225011E-09-0.51289787E-13    2
-0.31525621E+05-0.94730202E+01 0.48586957E+01-0.37401726E-02 0.69555378E-04    3
-0.88654796E-07 0.35168835E-10-0.29996132E+05 0.48018545E+01                   4
C2H3O              SDT18 H  3 O  1 C  2     G    290.00   3000.00 1200.00      1
+4.79322811E-01+2.07161452E-02-1.26963846E-05+3.45902072E-09-3.54122660E-13    2
+1.56512820E+04+3.46411098E+01+1.80566987E+00+7.11327396E-03+1.84141520E-05    3
-2.31228065E-08+7.42525768E-12+1.58425654E+04+3.04393680E+01                   4

!§§§§§§§§§§§§§§§§§§§§§§§§§§§§§§§§§§§§§§§§§§§§§§§§§§§§§§§§§§§§§§§§§§§§§§§§§§§§§§§
!§§§§§§§§§§§§§§§§§§§§§     Thermodata from Konnov     §§§§§§§§§§§§§§§§§§§§§§§§§§
!§§§§§§§§§§§§§§§§§§§§§§§§§§§§§§§§§§§§§§§§§§§§§§§§§§§§§§§§§§§§§§§§§§§§§§§§§§§§§§§
! H2-O2-NOx-Ar
AR                120186AR  1               G  0300.00   5000.00  1000.00      1
 0.02500000E+02 0.00000000E+00 0.00000000E+00 0.00000000E+00 0.00000000E+00    2
-0.07453750E+04 0.04366001E+02 0.02500000E+02 0.00000000E+00 0.00000000E+00    3
 0.00000000E+00 0.00000000E+00-0.07453750E+04 0.04366001E+02                   4
H2                121286H   2               G  0300.00   5000.00  1000.00      1
 0.02991423E+02 0.07000644E-02-0.05633829E-06-0.09231578E-10 0.01582752E-13    2
-0.08350340E+04-0.01355110E+02 0.03298124E+02 0.08249442E-02-0.08143015E-05    3
-0.09475434E-09 0.04134872E-11-0.01012521E+05-0.03294094E+02                   4
O2                121386O   2               G  0300.00   5000.00  1000.00      1
 0.03697578E+02 0.06135197E-02-0.01258842E-05 0.01775281E-09-0.01136435E-13    2
-0.01233930E+05 0.03189166E+02 0.03212936E+02 0.01127486E-01-0.05756150E-05    3
 0.01313877E-07-0.08768554E-11-0.01005249E+05 0.06034738E+02                   4
H                 120186H   1               G  0300.00   5000.00  1000.00      1
 0.02500000E+02 0.00000000E+00 0.00000000E+00 0.00000000E+00 0.00000000E+00    2
 0.02547163E+06-0.04601176E+01 0.02500000E+02 0.00000000E+00 0.00000000E+00    3
 0.00000000E+00 0.00000000E+00 0.02547163E+06-0.04601176E+01                   4
O                 120186O   1               G  0300.00   5000.00  1000.00      1
 0.02542060E+02-0.02755062E-03-0.03102803E-07 0.04551067E-10-0.04368052E-14    2
 0.02923080E+06 0.04920308E+02 0.02946429E+02-0.01638166E-01 0.02421032E-04    3
-0.01602843E-07 0.03890696E-11 0.02914764E+06 0.02963995E+02                   4
OH                121286O   1H   1          G  0300.00   5000.00  1000.00      1
 0.02882730E+02 0.01013974E-01-0.02276877E-05 0.02174684E-09-0.05126305E-14    2
 0.03886888E+05 0.05595712E+02 0.03637266E+02 0.01850910E-02-0.01676165E-04    3
 0.02387203E-07-0.08431442E-11 0.03606782E+05 0.01358860E+02                   4
H2O                20387H   2O   1          G  0300.00   5000.00  1000.00      1
 0.02672146E+02 0.03056293E-01-0.08730260E-05 0.01200996E-08-0.06391618E-13    2
-0.02989921E+06 0.06862817E+02 0.03386842E+02 0.03474982E-01-0.06354696E-04    3
 0.06968581E-07-0.02506588E-10-0.03020811E+06 0.02590233E+02                   4
HO2               L 5/89H   1O   2          G  0200.000  3500.00  1000.00      1
 4.01721090E+00 2.23982013E-03-6.33658150E-07 1.14246370E-10-1.07908535E-14    2
 1.11856713E+02 3.78510215E+00 4.30179801E+00-4.74912051E-03 2.11582891E-05    3
-2.42763894E-08 9.29225124E-12 2.94808040E+02 3.71666245E+00 1.00021620E+04    4
H2O2              120186H   2O   2          G  0300.00   5000.00  1000.00      1
 0.04573167E+02 0.04336136E-01-0.01474689E-04 0.02348904E-08-0.01431654E-12    2
-0.01800696E+06 0.05011370E+01 0.03388754E+02 0.06569226E-01-0.01485013E-05    3
-0.04625806E-07 0.02471515E-10-0.01766315E+06 0.06785363E+02                   4
N2                121286N   2               G  0300.00   5000.00  1000.00      1
 0.02926640E+02 0.01487977E-01-0.05684761E-05 0.01009704E-08-0.06753351E-13    2
-0.09227977E+04 0.05980528E+02 0.03298677E+02 0.01408240E-01-0.03963222E-04    3
 0.05641515E-07-0.02444855E-10-0.01020900E+05 0.03950372E+02                   4
N                 L 6/88N   1    0    0    0G   200.000  6000.00  1000.0       1
 0.24159429E+01 0.17489065E-03-0.11902369E-06 0.30226244E-10-0.20360983E-14    2
 0.56133775E+05 0.46496095E+01 0.25000000E+01 0.00000000E+00 0.00000000E+00    3
 0.00000000E+00 0.00000000E+00 0.56104638E+05 0.41939088E+01 0.56850013E+05    4
N2O4              RUS 89N   2O   4    0    0G   200.000  6000.000  1000.0      1
 1.15752899E+01 4.01616086E-03-1.57178323E-06 2.68274309E-10-1.66922019E-14    2
-2.92191226E+03-3.19488439E+01 3.02002308E+00 2.95904321E-02-3.01342458E-05    3
 1.42360407E-08-2.44100049E-12-6.40040162E+02 1.18059606E+01 1.33632866E+03    4
N2O3              L 4/90N   2O   3    0    0G   200.000  6000.000  1000.0      1
 9.08583845E+00 3.37756330E-03-1.31583890E-06 2.30762329E-10-1.47151267E-14    2
 7.27160146E+03-1.55361904E+01 5.81083964E+00 1.43330962E-02-1.96208597E-05    3
 1.73060735E-08-6.46553954E-12 8.19184453E+03 1.20461321E+00 1.04192062E+04    4
NO                121286N   1O   1          G  0300.00   5000.00  1000.00      1
 0.03245435E+02 0.01269138E-01-0.05015890E-05 0.09169283E-09-0.06275419E-13    2
 0.09800840E+05 0.06417294E+02 0.03376542E+02 0.01253063E-01-0.03302751E-04    3
 0.05217810E-07-0.02446263E-10 0.09817961E+05 0.05829590E+02                   4
NO2               121286N   1O   2          G  0300.00   5000.00  1000.00      1
 0.04682859E+02 0.02462429E-01-0.01042259E-04 0.01976902E-08-0.01391717E-12    2
 0.02261292E+05 0.09885985E+01 0.02670600E+02 0.07838501E-01-0.08063865E-04    3
 0.06161715E-07-0.02320150E-10 0.02896291E+05 0.01161207E+03                   4
N2O               121286N   2O   1          G  0300.00   5000.00  1000.00      1
 0.04718977E+02 0.02873714E-01-0.01197496E-04 0.02250552E-08-0.01575337E-12    2
 0.08165811E+05-0.01657250E+02 0.02543058E+02 0.09492193E-01-0.09792775E-04    3
 0.06263845E-07-0.01901826E-10 0.08765100E+05 0.09511222E+02                   4
NO3               121286N   1O   3          G  0300.00   5000.00  1000.00      1
 0.07120307E+02 0.03246228E-01-0.01431613E-04 0.02797053E-08-0.02013008E-12    2
 0.05864479E+05-0.01213730E+03 0.01221076E+02 0.01878797E+00-0.01344321E-03    3
 0.01274601E-07 0.01354060E-10 0.07473144E+05 0.01840203E+03                   4
NH                 31387H   1N   1          G  0300.00   5000.00  1000.00      1
 0.02760249E+02 0.01375346E-01-0.04451914E-05 0.07692792E-09-0.05017592E-13    2
 0.04207828E+06 0.05857199E+02 0.03339758E+02 0.01253009E-01-0.03491646E-04    3
 0.04218812E-07-0.01557618E-10 0.04185047E+06 0.02507181E+02                   4
NH2               121686N   1H   2          G  0300.00   5000.00  1000.00      1
 0.02961311E+02 0.02932699E-01-0.09063600E-05 0.01617257E-08-0.01204200E-12    2
 0.02191977E+06 0.05777878E+02 0.03432493E+02 0.03299540E-01-0.06613600E-04    3
 0.08590947E-07-0.03572047E-10 0.02177228E+06 0.03090111E+02                   4
NH3               121386N   1H   3          G  0300.00   5000.00  1000.00      1
 0.02461904E+02 0.06059166E-01-0.02004977E-04 0.03136003E-08-0.01938317E-12    2
-0.06493270E+05 0.07472097E+02 0.02204352E+02 0.01011476E+00-0.01465265E-03    3
 0.01447235E-06-0.05328509E-10-0.06525488E+05 0.08127138E+02                   4
NNH               120186N   2H   1          G  0250.00   4000.00  1000.00      1
 0.04415342E+02 0.01614388E-01-0.01632894E-05-0.08559846E-09 0.01614791E-12    2
 0.02788029E+06 0.09042888E+01 0.03501344E+02 0.02053587E-01 0.07170410E-05    3
 0.04921348E-08-0.09671170E-11 0.02833347E+06 0.06391837E+02                   4
N2H2              121286N   2H   2          G  0300.00   5000.00  1000.00      1
 0.03371185E+02 0.06039968E-01-0.02303854E-04 0.04062789E-08-0.02713144E-12    2
 0.02418172E+06 0.04980585E+02 0.01617999E+02 0.01306312E+00-0.01715712E-03    3
 0.01605608E-06-0.06093639E-10 0.02467526E+06 0.01379467E+03                   4
N2H3              120186N   2H   3          G  0300.00   5000.00  1000.00      1
 0.04441846E+02 0.07214271E-01-0.02495684E-04 0.03920565E-08-0.02298950E-12    2
 0.01664221E+06-0.04275205E+01 0.03174204E+02 0.04715907E-01 0.01334867E-03    3
-0.01919685E-06 0.07487564E-10 0.01727270E+06 0.07557224E+02                   4
N2H4              121286N   2H   4          G  0300.00   5000.00  1000.00      1
 0.04977317E+02 0.09595519E-01-0.03547639E-04 0.06124299E-08-0.04029795E-12    2
 0.09341219E+05-0.02962990E+02 0.06442606E+00 0.02749730E+00-0.02899451E-03    3
 0.01745240E-06-0.04422282E-10 0.01045192E+06 0.02127789E+03                   4
HNNO              103190H   1N   2O   1     G  0300.00   4000.00  1500.00      1
 0.06991217E+02 0.01875970E-01-0.02124584E-05-0.06710472E-09 0.12305080E-13    2
 0.02497566E+06-0.11235229E+02 0.02238298E+02 0.13591997E-01-0.11798728E-04    3
 0.05392970E-07-0.10108589E-11 0.02660258E+06 0.14136789E+02                   4
H2NO              102290H   2N   1O   1     G  0300.00   4000.00  1500.00      1
 0.05673346E+02 0.02298836E-01-0.01774445E-05-0.11034818E-09 0.01859762E-12    2
 0.05569325E+05-0.06153540E+02 0.02530589E+02 0.08596035E-01-0.05471030E-04    3
 0.02276249E-07-0.04648073E-11 0.06868030E+05 0.11266506E+02                   4
HNOH              102290H   2N   1O   1     G  0300.00   4000.00  1500.00      1
 0.06396134E+02 0.01821067E-01-0.01870891E-05-0.07844471E-09 0.14448555E-13    2
 0.07859615E+05-0.10404785E+02 0.02125274E+02 0.10662818E-01-0.07602588E-04    3
 0.03081641E-07-0.05726498E-11 0.09553544E+05 0.13096718E+02                   4
NH2OH  WRA032798        N   1H   3O   1    0G   200.000  6000.000  1000.0      1
 3.98241375E+00 7.99825642E-03-2.74883544E-06 4.22874218E-10-2.42498273E-14    2
-6.44279418E+03 3.22666600E+00 2.67285464E+00 1.13645347E-02-4.92179546E-06    3
-9.18041765E-11 6.06669407E-13-6.08956846E+03 1.00068112E+01-4.83091791E+00    4
HNO               121286H   1N   1O   1     G  0300.00   5000.00  1000.00      1
 0.03615144E+02 0.03212486E-01-0.01260337E-04 0.02267298E-08-0.01536236E-12    2
 0.01066191E+06 0.04810264E+02 0.02784403E+02 0.06609646E-01-0.09300223E-04    3
 0.09437980E-07-0.03753146E-10 0.01091878E+06 0.09035629E+02                   4
HONO               31787H   1N   1O   2     G  0300.00   5000.00  1000.00      1
 0.05486893E+02 0.04218065E-01-0.01649143E-04 0.02971877E-08-0.02021148E-12    2
-0.01126865E+06-0.02997002E+02 0.02290413E+02 0.01409922E+00-0.01367872E-03    3
 0.07498780E-07-0.01876905E-10-0.01043195E+06 0.01328077E+03                   4
HNO3              121286H   1N   1O   3     G  0300.00   5000.00  1000.00      1
 0.07003845E+02 0.05811493E-01-0.02333789E-04 0.04288814E-08-0.02959385E-12    2
-0.01889952E+06-0.01047863E+03 0.01353185E+02 0.02220025E+00-0.01978812E-03    3
 0.08773908E-07-0.01658384E-10-0.01738563E+06 0.01851868E+03                   4


!§§§§§§§§§§§§§§§§§§§§§§§§§§§§§§§§§§§§§§§§§§§§§§§§§§§§§§§§§§§§§§§§§§§§§§§§§§§§§§§
!§§§§§§§§§§§§§§§§     Thermodata for OH*, CH* and CO2*     §§§§§§§§§§§§§§§§§§§§§
!§§§§§§§§§§§§§§§§§§§§§§§§§§§§§§§§§§§§§§§§§§§§§§§§§§§§§§§§§§§§§§§§§§§§§§§§§§§§§§§
! CH* Petersen
CH*                SDT18 H  1 C  1          G    300.00   5000.00 1200.00      1
+2.19619188E+00+2.34043357E-03-7.05849639E-07+9.00825919E-11-3.85558568E-15    2
+1.04350881E+05+9.17731364E+00+3.26787506E+00+1.59455142E-03-4.00091436E-06    3
+4.65503017E-09-1.60491694E-12+1.03930175E+05+3.04708316E+00                   4
! OH* Petersen
OH*                SDT18 H  1 O  1          G    300.00   5000.00 1200.00      1
+2.88272162E+00+1.01398847E-03-2.27695660E-07+2.17486548E-11-5.12777544E-16    2
+5.03010210E+04+5.59529841E+00+3.64731694E+00+1.25257954E-04-1.57633414E-06    3
+2.35110477E-09-8.59505189E-13+5.00201598E+04+1.31534766E+00                   4
! CO2* Petersen
CO2*               L7/88C  1.H  0.N  0.O  2.G   200.000  6000.00   1000.00     1
 0.46365111E+01 0.27414569E-02-0.99589759E-06 0.16038666E-09-0.91619857E-14    2
-1.03030400E+03-0.19348955E+01 0.23568130E+01 0.89841299E-02-0.71220632E-05    3
 0.24573008E-08-0.14288548E-12-3.73971000E+02 0.99009035E+01-0.47328105E+05    4


!§§§§§§§§§§§§§§§§§§§§§§§§§§§§§§§§§§§§§§§§§§§§§§§§§§§§§§§§§§§§§§§§§§§§§§§§§§§§§§§
!§§§§§§§§§§§§§§§§§§§§§§§    Thermo acroleine JetSurf    §§§§§§§§§§§§§§§§§§§§§§§§
!§§§§§§§§§§§§§§§§§§§§§§§§§§§§§§§§§§§§§§§§§§§§§§§§§§§§§§§§§§§§§§§§§§§§§§§§§§§§§§§
CH3CHCHCHO         SDT18 H  6 O  1 C  4     G    290.00   3000.00 1200.00      1
+1.98824772E+01-2.09194768E-02+4.45409525E-05-2.60390905E-08+4.86855187E-12    2
-1.95974109E+04-7.20255479E+01-1.03191977E+00+3.63955116E-02-2.92179941E-06    3
-1.79277739E-08+7.98700215E-12-1.41852281E+04+3.53656056E+01                   4


!§§§§§§§§§§§§§§§§§§§§§§§§§§§§§§§§§§§§§§§§§§§§§§§§§§§§§§§§§§§§§§§§§§§§§§§§§§§§§§§
!§§§§§§§§§§§§§§   Thermo acroleine, G. Blanquart, no internal rotor  §§§§§§§§§§§
!§§§§§§§§§§§§§§§§§§§§§§§§§§§§§§§§§§§§§§§§§§§§§§§§§§§§§§§§§§§§§§§§§§§§§§§§§§§§§§§
C2H3CHO             G3B3H  4.C  3.O  1.N  0.G   300.000  3000.000  1000.00     1
 1.29657551E+00 2.72986776E-02-1.59475123E-05 4.45066114E-09-4.79033268E-13    2
-9.78509496E+03 1.88469805E+01 1.35468752E+00 2.51786832E-02-6.38495412E-06    3
-8.54691990E-09 5.01787204E-12-9.82071494E+03 1.87425730E+01 1.41497835E+04    4
C2H3CO              G3B3H  3.C  3.O  1.N  0.G   300.000  3000.000  1000.00     1
 3.17850438E+00 2.03364037E-02-1.16152012E-05 3.18296874E-09-3.37744056E-13    2
 8.86949716E+03 1.05296724E+01 1.81822394E+00 2.47165506E-02-1.47624622E-05    3
 1.77817166E-09 1.19444752E-12 9.13355208E+03 1.72048582E+01 1.42121470E+04    4
CHCHCHO             G3B3H  3.C  3.O  1.N  0.G   300.000  3000.000  1000.00     1
 3.83986836E+00 1.94238840E-02-1.10248390E-05 3.00026779E-09-3.16292866E-13    2
 1.97221648E+04 6.93382406E+00 1.31518847E+00 2.87626171E-02-2.27393898E-05    3
 8.51188934E-09-9.27416944E-13 2.02266478E+04 1.92078110E+01 1.42727804E+04    4
CH2CCHO             G3B3H  3.C  3.O  1.N  0.G   300.000  3000.000  1000.00     1
 3.33220805E+00 2.05165104E-02-1.18373717E-05 3.26017446E-09-3.46707274E-13    2
 2.03646676E+04 1.09328650E+01 2.78203018E+00 2.13458425E-02-9.29874587E-06    3
-2.10436204E-09 2.20004916E-12 2.04857536E+04 1.37862038E+01 1.52384153E+04    4


!§§§§§§§§§§§§§§§§§§§§§§§§§§§§§§§§§§§§§§§§§§§§§§§§§§§§§§§§§§§§§§§§§§§§§§§§§§§§§§§
!§§§§§§§§§§§§§§§§§     Thermodata from The Caltech mec     §§§§§§§§§§§§§§§§§§§§§
!§§§§§§§§§§§§§§§§§§§§§§§§§§§§§§§§§§§§§§§§§§§§§§§§§§§§§§§§§§§§§§§§§§§§§§§§§§§§§§§
C2                      C   20   00   00   0G   300.00   5000.00  1000.00      1
 0.04135978E+02 0.06531618E-03 0.01837099E-05-0.05295085E-09 0.04712137E-13    2
 0.09967272E+06 0.07472923E+01 0.06996045E+02-0.07400601E-01 0.03234703E-04    3
 0.04802535E-07-0.03295917E-10 0.09897487E+06-0.13862268E+02                   4

! ** Thermodynamic properties taken from **
!
! GRI-MECH Version 3.0
!
C                 L11/88C   1   00   00   00G   200.000  3500.000  1000.000    1
 2.49266888E+00 4.79889284E-05-7.24335020E-08 3.74291029E-11-4.87277893E-15    2
 8.54512953E+04 4.80150373E+00 2.55423955E+00-3.21537724E-04 7.33792245E-07    3
-7.32234889E-10 2.66521446E-13 8.54438832E+04 4.53130848E+00 6.53589500E+03    4
! CAS# : 3315-37-5
CH                TPIS79C   1H   1   00   00G   200.000  3500.000  1000.000    1
 2.87846473E+00 9.70913681E-04 1.44445655E-07-1.30687849E-10 1.76079383E-14    2
 7.10124364E+04 5.48497999E+00 3.48981665E+00 3.23835541E-04-1.68899065E-06    3
 3.16217327E-09-1.40609067E-12 7.07972934E+04 2.08401108E+00 8.62500000E+03    4
! CAS# : 2465-56-7
T-CH2             L S/93C   1H   2   00   00G   200.000  3500.000  1000.000    1
 2.87410113E+00 3.65639292E-03-1.40894597E-06 2.60179549E-10-1.87727567E-14    2
 4.62636040E+04 6.17119324E+00 3.76267867E+00 9.68872143E-04 2.79489841E-06    3
-3.85091153E-09 1.68741719E-12 4.60040401E+04 1.56253185E+00 1.00274170E+04    4
! CAS# : 2465-56-7
S-CH2             L S/93C   1H   2   00   00G   200.000  3500.000  1000.000    1
 2.29203842E+00 4.65588637E-03-2.01191947E-06 4.17906000E-10-3.39716365E-14    2
 5.09259997E+04 8.62650169E+00 4.19860411E+00-2.36661419E-03 8.23296220E-06    3
-6.68815981E-09 1.94314737E-12 5.04968163E+04-7.69118967E-01 9.93967200E+03    4
! CAS# : 630-08-0
CO                TPIS79C   1O   1   00   00G   200.000  3500.000  1000.000    1
 2.71518561E+00 2.06252743E-03-9.98825771E-07 2.30053008E-10-2.03647716E-14    2
-1.41518724E+04 7.81868772E+00 3.57953347E+00-6.10353680E-04 1.01681433E-06    3
 9.07005884E-10-9.04424499E-13-1.43440860E+04 3.50840928E+00 8.67100000E+03    4
! CAS# : 124-38-9
CO2               L 7/88C   1O   2   00   00G   200.000  3500.000  1000.000    1
 3.85746029E+00 4.41437026E-03-2.21481404E-06 5.23490188E-10-4.72084164E-14    2
-4.87591660E+04 2.27163806E+00 2.35677352E+00 8.98459677E-03-7.12356269E-06    3
 2.45919022E-09-1.43699548E-13-4.83719697E+04 9.90105222E+00 9.36546900E+03    4
! CAS# : 2597-44-6
HCO               L12/89H   1C   1O   1   00G   200.000  3500.000  1000.000    1
 2.77217438E+00 4.95695526E-03-2.48445613E-06 5.89161778E-10-5.33508711E-14    2
 4.01191815E+03 9.79834492E+00 4.22118584E+00-3.24392532E-03 1.37799446E-05    3
-1.33144093E-08 4.33768865E-12 3.83956496E+03 3.39437243E+00 9.98945000E+03    4
! CAS# : 50-00-0
CH2O              L 8/88H   2C   1O   1   00G   200.000  3500.000  1000.000    1
 1.76069008E+00 9.20000082E-03-4.42258813E-06 1.00641212E-09-8.83855640E-14    2
-1.39958323E+04 1.36563230E+01 4.79372315E+00-9.90833369E-03 3.73220008E-05    3
-3.79285261E-08 1.31772652E-11-1.43089567E+04 6.02812900E-01 1.00197170E+04    4
! CAS# : 2597-43-5
CH2OH             GUNL93C   1H   3O   1   00G   200.000  3500.000  1000.000    1
 3.69266569E+00 8.64576797E-03-3.75101120E-06 7.87234636E-10-6.48554201E-14    2
-3.24250627E+03 5.81043215E+00 3.86388918E+00 5.59672304E-03 5.93271791E-06    3
-1.04532012E-08 4.36967278E-12-3.19391367E+03 5.47302243E+00 1.18339080E+04    4
! CAS# : 2143-68-2
CH3O               SDT18 H  3 O  1 C  1     G    300.00   3000.00 1200.00      1
+3.77046712E+00+7.87220197E-03-2.65692210E-06+3.94619132E-10-2.11470917E-14    2
+1.26244077E+02+2.92837784E+00+2.40884765E+00+5.00534080E-03+1.08450180E-05    3
-1.29840901E-08+4.06713829E-12+9.48140358E+02+1.18879704E+01                   4
! CAS# : 67-56-1
CH3OH             L 8/88C   1H   4O   1   00G   200.000  3500.000  1000.000    1
 1.78970791E+00 1.40938292E-02-6.36500835E-06 1.38171085E-09-1.17060220E-13    2
-2.53748747E+04 1.45023623E+01 5.71539582E+00-1.52309129E-02 6.52441155E-05    3
-7.10806889E-08 2.61352698E-11-2.56427656E+04-1.50409823E+00 1.14352770E+04    4
! CAS# : 2122-48-7
C2H               L 1/91C   2H   1   00   00G   200.000  3500.000  1000.000    1
 3.16780652E+00 4.75221902E-03-1.83787077E-06 3.04190252E-10-1.77232770E-14    2
 6.71210650E+04 6.63589475E+00 2.88965733E+00 1.34099611E-02-2.84769501E-05    3
 2.94791045E-08-1.09331511E-11 6.68393932E+04 6.22296438E+00 1.04544720E+04    4
! CAS# : 74-86-2
C2H2              L 1/91C   2H   2   00   00G   200.000  3500.000  1000.000    1
 4.14756964E+00 5.96166664E-03-2.37294852E-06 4.67412171E-10-3.61235213E-14    2
 2.59359992E+04-1.23028121E+00 8.08681094E-01 2.33615629E-02-3.55171815E-05    3
 2.80152437E-08-8.50072974E-12 2.64289807E+04 1.39397051E+01 1.00058390E+04    4
! CAS# : 2669-89-8
C2H3              L 2/92C   2H   3   00   00G   200.000  3500.000  1000.000    1
 3.01672400E+00 1.03302292E-02-4.68082349E-06 1.01763288E-09-8.62607041E-14    2
 3.46128739E+04 7.78732378E+00 3.21246645E+00 1.51479162E-03 2.59209412E-05    3
-3.57657847E-08 1.47150873E-11 3.48598468E+04 8.51054025E+00 1.05750490E+04    4
! CAS# : 74-85-1
C2H4              L 1/91C   2H   4   00   00G   200.000  3500.000  1000.000    1
 2.03611116E+00 1.46454151E-02-6.71077915E-06 1.47222923E-09-1.25706061E-13    2
 4.93988614E+03 1.03053693E+01 3.95920148E+00-7.57052247E-03 5.70990292E-05    3
-6.91588753E-08 2.69884373E-11 5.08977593E+03 4.09733096E+00 1.05186890E+04    4
! CAS# : 2025-56-1
C2H5              L12/92C   2H   5   00   00G   200.000  3500.000  1000.000    1
 1.95465642E+00 1.73972722E-02-7.98206668E-06 1.75217689E-09-1.49641576E-13    2
 1.28575200E+04 1.34624343E+01 4.30646568E+00-4.18658892E-03 4.97142807E-05    3
-5.99126606E-08 2.30509004E-11 1.28416265E+04 4.70720924E+00 1.21852440E+04    4
! CAS# : 74-84-0
C2H6              L 8/88C   2H   6   00   00G   200.000  3500.000  1000.000    1
 1.07188150E+00 2.16852677E-02-1.00256067E-05 2.21412001E-09-1.90002890E-13    2
-1.14263932E+04 1.51156107E+01 4.29142492E+00-5.50154270E-03 5.99438288E-05    3
-7.08466285E-08 2.68685771E-11-1.15222055E+04 2.66682316E+00 1.18915940E+04    4
! CAS# : 436-51-4
CH2CO             L 5/90C   2H   2O   1   00G   200.000  3500.000  1000.000    1
 4.51129732E+00 9.00359745E-03-4.16939635E-06 9.23345882E-10-7.94838201E-14    2
-7.55105311E+03 6.32247205E-01 2.13583630E+00 1.81188721E-02-1.73947474E-05    3
 9.34397568E-09-2.01457615E-12-7.04291804E+03 1.22156480E+01 1.17977430E+04    4
! CAS# : 51095-15-9
HCCO               SDT18 H  1 O  1 C  2     G    300.00   4000.00 1200.00      1
+5.62808734E+00+4.08556062E-03-1.59359682E-06+2.86298777E-10-1.94115071E-14    2
+1.93249358E+04-3.93346841E+00+2.64850363E+00+1.47225587E-02-1.63015359E-05    3
+9.53630243E-09-2.23265804E-12+2.00198218E+04+1.08366724E+01                   4
! CAS# : 32038-79-2
HCCOH              SDT18 H  2 O  1 C  2     G    300.00   5000.00 1200.00      1
+5.92369599E+00+6.79258488E-03-2.56598276E-06+4.49907378E-10-2.99424353E-14    2
+7.25867044E+03-7.61146324E+00+2.45079699E+00+2.20596596E-02-2.77434352E-05    3
+1.86450406E-08-4.86850786E-12+7.91169085E+03+8.84684926E+00                   4
! CAS# : 2143-61-5
N-C3H7             SDT18 H  7 C  3          G    290.00   5000.00 1200.00      1
+7.70379110E+00+1.60419613E-02-5.28183346E-06+7.62598307E-10-3.93578357E-14    2
+8.29718895E+03-1.54853127E+01+2.86249909E-01+3.20252872E-02-1.43024102E-05    3
-3.31468536E-10+1.46417616E-12+1.07050054E+04+2.42711990E+01                   4
! CAS# : 74-98-6
C3H8               SDT18 H  8 C  3          G    300.00   5000.00 1200.00      1
+7.53383893E+00+1.88727422E-02-6.27213187E-06+9.14821315E-10-4.78432927E-14    2
-1.64694698E+04-1.78921611E+01+4.63328044E-01+3.02707210E-02-4.98107073E-06    3
-8.61581294E-09+3.81150487E-12-1.39150305E+04+2.11201251E+01                   4

! ** Thermodynamic properties taken from **
!
! Alexander Burcat and Branko Ruscic
! Ideal Gas Thermochemical Database with updates from Active Thermochemical Tables
!
! <ftp://ftp.technion.ac.il/pub/supported/aetdd/thermodynamics>; 21 July 2008.
! mirrored at
! <http://garfield.chem.elte.hu/Burcat/burcat.html>; 21 July 2008.
!
! CAS# : 2229-07-4
CH3 METHYL        IU0702C   1H   3    0    0G   200.000  6000.000  1000.000    1
 2.97812060E+00 5.79785200E-03-1.97558000E-06 3.07297900E-10-1.79174160E-14    2
 1.65095130E+04 4.72247990E+00 3.65717970E+00 2.12659790E-03 5.45838830E-06    3
-6.61810030E-09 2.46570740E-12 1.64227160E+04 1.67353540E+00 1.76439350E+04    4
! CAS# : 2143-58-0
CH3O2 PEROXYMETH  T04/02C   1H   3O   2    0G   200.000  6000.000  1000.000    1
 5.92505819E+00 9.00194542E-03-3.24254309E-06 5.24362718E-10-3.14263003E-14    2
-1.53258958E+03-4.93669747E+00 4.76597792E+00-3.51077148E-03 4.54394152E-05    3
-5.66763729E-08 2.21591482E-11-4.82401289E+02 4.76095141E+00 1.08244503E+03    4
! CAS# : 74-82-8
CH4               g 8/99C   1H   4    0    0G   200.000  6000.000  1000.000    1
 1.65326226E+00 1.00263099E-02-3.31661238E-06 5.36483138E-10-3.14696758E-14    2
-1.00095936E+04 9.90506283E+00 5.14911468E+00-1.36622009E-02 4.91453921E-05    3
-4.84246767E-08 1.66603441E-11-1.02465983E+04-4.63848842E+00-8.97226656E+03    4
! CAS# : 2143-69-3
H2C2              L12/89H   2C   2    0    0G   200.000  6000.000  1000.000    1
 4.27803400E+00 4.75628040E-03-1.63010090E-06 2.54628060E-10-1.48863790E-14    2
 4.83166880E+04 6.40237010E-01 3.28154830E+00 6.97647910E-03-2.38552440E-06    3
-1.21044320E-09 9.81895450E-13 4.86217940E+04 5.92039100E+00 4.98872660E+04    4
! CAS# : 12071-23-7
C2O               g 8/00C   2O   1    0    0G   200.000  6000.000  1000.000    1
 5.42468378E+00 1.85393945E-03-5.17932956E-07 6.77646230E-11-3.53315237E-15    2
 3.31537194E+04-3.69608405E+00 2.86278214E+00 1.19701204E-02-1.80851222E-05    3
 1.52777730E-08-5.20063163E-12 3.37501779E+04 8.89759099E+00 3.50037063E+04    4
! CAS # 67-64-1
CH3COCH3 acetone  ATcT AC   3H   6O   1    0G   200.000  6000.000  1000.000    1