ELEMENTS
 N   H   O   C   AR 
END
SPECIES
 N2              H               O2              O               OH             
 H2              H2O             CO2             AR              HO2            
 H2O2            CO              HCO             S-OH            CH             
 C               S-CH            C2H             T-CH2           CH3            
 CH2O            HCCO            CH2CO           C2H2            S-CH2          
 CH4             CH3O            CH3O2           C2H3            C2H4           
 C2H5            CH2OH           CH3OH           H2C2            CH2CHO         
 CH3CHO          N-C3H7          C2H6            C2H5O           C3H6           
 I-C3H7          C3H8            C3H2            C4H2            N-C4H3         
 C4H4            C3H2O           C3H3            C2H3CHO         A-C3H4         
 P-C3H4          I-C4H3          A-C3H5          T-C3H5          S-C3H5         
 C3H5O           C4H             C4H2O           C6H2            C8H2           
 C4H6            I-C4H5          N-C4H5          D-C4H6          S-C4H5         
 S-C4H6          A1CH3           A1CH3*          N-C6H14         N-C5H11        
 N-C4H9          C6H13           C4H8            C5H10           C6H12          
 C6H13O          C6H13O2         C6H12OOH        C6H12O          C6H13O4        
 OC6H11OOH       N-C7H16         N-C6H13         C7H15           C7H14          
 C7H15O          C7H15O2         C7H14OOH        C7H14O          C7H15O4        
 OC7H13OOH       N-C12H26        N-C10H21        N-C9H19         N-C8H17        
 N-C7H15         C12H25          C8H16           C9H18           C10H20         
 C12H24          C12H25O         C4H7            C5H9            C7H13          
 C8H15           C12H23          C10H19          C9H17           C12H25O2       
 C12H24OOH       C12H24O         C12H25O4        C12H24O3        C8H17O2        
 C8H16OOH        C8H16O          C8H17O4         C8H16O3         C6H11          
 I-C8H18         Y-C7H15         T-C4H8          T-C4H9          C-C8H17        
 Y-C7H14         D-C8H17O        CH3COCH3        T-C4H7          X-C7H13        
 C5H6            C5H5            C5H4CH2         A2              C9H7           
 C9H8            C5H5O           C5H4O           A1              A1-            
 A1OH            A1O             O-C6H4          OC6H4O          A1CH2          
 OA1CH3          HOA1CH3         A1CHO           A1CH2O          A1C2H3         
 A1C2H2          A1C2H3*         A1C2H           A1C2H*          A1C2H4         
 A1C2H5          A1CH3CH3        A1CH3CH2        A1CH3CHO        A2CH3          
 A1CHOCH2        A1CHOCHO        A3              C9H6O           A2R5           
 A2-             A2*             A2O             A2OH            A2CH2          
 A2CHO           A2CH2O          A2C2HA          A2C2HB          A2C2H2A        
 A2C2H2B         A2C2HA*         A2C2HB*         A2R5-           A2R5C2H        
 A2R5C2H2        A2R5C2H*        P2              P2-             A3-            
 A3*             A3R5-           A3R5            A4              A4-            
 A4R5            FLTN            C2O             A1CH2OH
END
REACTIONS
 H+O2 = O+OH                             1.040e+14    0.000  15286.81
 O+H2 = H+OH                             3.820e+12    0.000   7946.94
   DUPLICATE
 O+H2 = H+OH                             8.790e+14    0.000  19170.65
   DUPLICATE
 OH+H2 = H+H2O                           2.170e+08    1.520   3456.02
 2OH = O+H2O                             3.570e+04    2.400  -2110.42
 2H+M = H2+M                             1.780e+18   -1.000      0.00
   H2/0.00/ H2O/0.00/ CO2/0.00/ AR/0.63/ 
 2H+H2 = 2H2                             9.000e+16   -0.600      0.00
 2H+H2O = H2+H2O                         5.620e+19   -1.250      0.00
 2H+CO2 = H2+CO2                         5.500e+20   -2.000      0.00
 O+H+M = OH+M                            4.710e+18   -1.000      0.00
   H2/2.50/ H2O/12.00/ AR/0.75/ 
 2O+M = O2+M                             6.160e+15   -0.500      0.00
   H2/2.50/ H2O/12.00/ AR/0.00/ 
 2O+AR = O2+AR                           1.890e+13    0.000  -1787.76
 H+O2(+M) = HO2(+M)                      5.590e+13    0.200      0.00
   O2/0.89/ H2/1.50/ H2O/11.70/ CO2/2.18/ AR/0.52/ CO/1.09/ 
   LOW  /  2.650e+19   -1.300      0.00 /
   TROE/     0.7     0.00 10000000000.00 10000000000.00 /
 H2O+M = OH+H+M                          6.060e+27   -3.310 120769.60
   N2/2.00/ O2/1.50/ H2/3.00/ H2O/0.00/ 
 2H2O = OH+H+H2O                         1.000e+26   -2.440 120160.13
 HO2+H = H2+O2                           3.660e+06    2.090  -1450.76
 HO2+H = O+H2O                           1.450e+12    0.000      0.00
 HO2+H = 2OH                             7.080e+13    0.000    301.15
 HO2+O = OH+O2                           1.630e+13    0.000   -444.55
 HO2+OH = H2O+O2                         2.890e+13    0.000   -499.52
 2HO2 = H2O2+O2                          1.300e+11    0.000  -1603.73
   DUPLICATE
 2HO2 = H2O2+O2                          4.200e+14    0.000  11978.97
   DUPLICATE
 2OH(+M) = H2O2(+M)                      1.110e+14   -0.370      0.00
   N2/1.50/ H2/2.50/ H2O/9.00/ 
   LOW  /  2.730e+19   -1.500  -2292.07 /
   TROE/  0.7346    94.00   1756.00   5182.00 /
 H2O2+H = H2O+OH                         1.020e+13    0.000   3577.92
 H2O2+H = HO2+H2                         1.210e+07    2.000   5200.76
 H2O2+O = HO2+OH                         8.430e+11    0.000   3969.89
 H2O2+OH = HO2+H2O                       1.740e+12    0.000    317.88
   DUPLICATE
 H2O2+OH = HO2+H2O                       7.590e+13    0.000   7115.20
   DUPLICATE
 CO+O(+M) = CO2(+M)                      1.360e+10    0.000   2382.89
   H2/2.00/ H2O/12.00/ CO2/3.60/ AR/0.70/ CO/1.75/ 
   LOW  /  1.170e+24   -2.790   4192.16 /
   TROE/       1     1.00 10000000.00 10000000.00 /
 CO+OH = CO2+H                           8.000e+11    0.140   7351.82
   DUPLICATE
 CO+OH = CO2+H                           8.780e+10    0.030    -16.73
   DUPLICATE
 CO+O2 = CO2+O                           1.120e+12    0.000  47700.76
 CO+HO2 = CO2+OH                         3.010e+13    0.000  22999.52
 HCO+M = CO+H+M                          1.870e+17   -1.000  17000.48
   H2/2.00/ H2O/0.00/ CO2/3.60/ CO/1.75/ 
 HCO+H2O = CO+H+H2O                      2.240e+18   -1.000  17000.48
 HCO+H = CO+H2                           1.200e+14    0.000      0.00
 HCO+O = CO+OH                           3.000e+13    0.000      0.00
 HCO+OH = CO+H2O                         3.020e+13    0.000      0.00
 HCO+O = CO2+H                           3.000e+13    0.000      0.00
 HCO+O2 = CO+HO2                         5.310e+10    0.690   -124.28
 O+H+M = S-OH+M                          3.000e+12    0.000   5975.14
   H2/2.50/ H2O/16.30/ AR/0.88/ 
 CH+O2 = S-OH+CO                         8.000e+10    0.000      0.00
 S-OH = OH                               1.450e+06    0.000      0.00
 S-OH+AR = OH+AR                         1.690e+12    0.000   4139.58
 S-OH+N2 = OH+N2                         1.080e+11    0.500  -1240.44
 S-OH+O2 = OH+O2                         2.100e+12    0.500   -482.79
 S-OH+H2O = OH+H2O                       1.550e+12    0.500   -862.81
 S-OH+CO = OH+CO                         2.280e+12    0.500   -788.72
 S-OH+CO2 = OH+CO2                       1.610e+12    0.500   -970.36
 C+H+M = S-CH+M                          3.630e+13    0.000      0.00
   
 C2H+O = S-CH+CO                         1.440e+13    0.000    456.50
 S-CH = CH                               1.860e+06    0.000      0.00
 S-CH+AR = CH+AR                         3.130e+11    0.000      0.00
 S-CH+N2 = CH+N2                         3.030e+02    3.400   -406.31
 S-CH+O2 = CH+O2                         2.480e+06    2.140  -1720.84
 S-CH+H2O = CH+H2O                       5.300e+13    0.000      0.00
 S-CH+CO = CH+CO                         2.440e+12    0.500      0.00
 S-CH+CO2 = CH+CO2                       2.400e-01    4.300  -1696.94
 C+OH = CO+H                             5.000e+13    0.000      0.00
 C+O2 = CO+O                             5.800e+13    0.000    576.00
 CH+H = C+H2                             1.100e+14    0.000      0.00
 CH+O = CO+H                             5.700e+13    0.000      0.00
 CH+OH = HCO+H                           3.000e+13    0.000      0.00
 CH+H2 = T-CH2+H                         1.080e+14    0.000   3109.46
 CH+H2(+M) = CH3(+M)                     1.970e+12    0.430   -370.46
   H2/2.00/ H2O/6.00/ CO2/2.00/ AR/0.70/ CO/1.50/ CH4/2.00/ C2H6/3.00/ 
   
   LOW  /  4.820e+25   -2.800    590.34 /
   TROE/   0.578   122.00   2535.00   9365.00 /
 CH+H2O = CH2O+H                         5.710e+12    0.000   -755.26
 CH+O2 = HCO+O                           6.710e+13    0.000      0.00
 CH+CO(+M) = HCCO(+M)                    5.000e+13    0.000      0.00
   H2/2.00/ H2O/6.00/ CO2/2.00/ AR/0.70/ CO/1.50/ CH4/2.00/ C2H6/3.00/ 
   
   LOW  /  2.690e+28   -3.740   1935.95 /
   TROE/  0.5757   237.00   1652.00   5069.00 /
 CH+CO2 = HCO+CO                         1.900e+14    0.000  15791.11
 T-CH2+H(+M) = CH3(+M)                   4.190e+14    0.000      0.00
   H2/2.00/ H2O/6.00/ CO2/2.00/ AR/0.70/ CO/1.50/ CH4/2.00/ C2H6/3.00/ 
   
   LOW  /  1.040e+26   -2.760   1598.95 /
   TROE/   0.562    91.00   5836.00   8552.00 /
 T-CH2+O = HCO+H                         8.000e+13    0.000      0.00
 T-CH2+OH = CH2O+H                       2.000e+13    0.000      0.00
 T-CH2+OH = CH+H2O                       1.130e+07    2.000   2999.52
 T-CH2+H2 = CH3+H                        5.000e+05    2.000   7229.92
 T-CH2+O2 = HCO+OH                       9.570e+12    0.000   1737.57
 T-CH2+O2 = CH2O+O                       3.300e+12    0.000   1737.57
 T-CH2+O2 = CO2+H2                       3.630e+12    0.000   1737.57
 T-CH2+HO2 = CH2O+OH                     2.000e+13    0.000      0.00
 T-CH2+C = C2H+H                         5.000e+13    0.000      0.00
 T-CH2+CO(+M) = CH2CO(+M)                8.100e+11    0.500   4510.04
   H2/2.00/ H2O/6.00/ CO2/2.00/ AR/0.70/ CO/1.50/ CH4/2.00/ C2H6/3.00/ 
   
   LOW  /  2.690e+33   -5.110   7096.08 /
   TROE/  0.5907   275.00   1226.00   5185.00 /
 T-CH2+CH = C2H2+H                       4.000e+13    0.000      0.00
 2T-CH2 = C2H2+H2                        1.600e+15    0.000  11943.12
 2T-CH2 => C2H2+2H                       2.000e+14    0.000  10989.48
 S-CH2+N2 = T-CH2+N2                     1.500e+13    0.000    599.90
 S-CH2+AR = T-CH2+AR                     9.000e+12    0.000    599.90
 S-CH2+CO = T-CH2+CO                     9.000e+12    0.000      0.00
 S-CH2+CO2 = T-CH2+CO2                   7.000e+12    0.000      0.00
 S-CH2+H2O = T-CH2+H2O                   3.000e+13    0.000      0.00
 S-CH2+H = CH+H2                         3.000e+13    0.000      0.00
 S-CH2+O = CO+H2                         1.500e+13    0.000      0.00
 S-CH2+O = HCO+H                         1.500e+13    0.000      0.00
 S-CH2+H2 = CH3+H                        7.000e+13    0.000      0.00
 S-CH2+O2 => CO+OH+H                     2.800e+13    0.000      0.00
 S-CH2+O2 = CO+H2O                       1.200e+13    0.000      0.00
 S-CH2+OH = CH2O+H                       3.000e+13    0.000      0.00
 S-CH2+H2O => CH2O+H2                    6.820e+10    0.250   -934.51
 S-CH2+CO2 = CH2O+CO                     1.400e+13    0.000      0.00
 CH2O(+M) = HCO+H(+M)                    8.360e+17   -0.500  89149.14
   H2/2.00/ H2O/6.00/ CO2/2.00/ AR/0.70/ CO/1.50/ CH4/2.00/ C2H6/3.00/ 
   
   LOW  /  1.110e+40   -6.420 100461.28 /
   TROE/  0.7824   271.00   2755.00   6570.00 /
 CH2O(+M) = CO+H2(+M)                    1.230e+14    0.000  82934.99
   H2/2.00/ H2O/6.00/ CO2/2.00/ AR/0.70/ CO/1.50/ CH4/2.00/ C2H6/3.00/ 
   
   LOW  /  1.470e+45   -7.830  96821.22 /
   TROE/   0.932   197.00   1540.00  10300.00 /
 CH2O+H = HCO+H2                         5.860e+03    3.130   1515.30
 CH2O+OH = HCO+H2O                       1.940e+06    2.110  -1687.38
 CH2O+O = HCO+OH                         3.900e+13    0.000   3539.67
 CH2O+O2 = HCO+HO2                       1.000e+14    0.000  40000.00
 CH2O+HO2 = HCO+H2O2                     5.600e+06    2.000  12000.48
 CH2O+CH = CH2CO+H                       2.680e+14   -0.320   -767.21
 CH3+H(+M) = CH4(+M)                     4.360e+13    0.190      0.00
   H2/2.00/ H2O/6.00/ CO2/2.00/ AR/0.70/ CO/1.50/ CH4/2.00/ C2H6/3.00/ 
   
   LOW  /  2.790e+34   -5.100   2784.42 /
   TROE/    0.63    61.00   3315.00 10000000000.00 /
 CH3+O = CH2O+H                          3.320e+13    0.050   -136.23
 CH3+O = HCO+H2                          2.220e+13    0.050   -136.23
 CH3+OH = T-CH2+H2O                      4.240e+04    2.570   3998.57
 CH3+OH = S-CH2+H2O                      1.810e+15   -0.770   1324.09
 CH3+O2 = CH3O+O                         1.380e+13    0.000  30521.03
 CH3+O2 = CH2O+OH                        5.870e+11    0.000  13840.82
 CH3+O2(+M) = CH3O2(+M)                  1.010e+08    1.630      0.00
   
   LOW  /  3.820e+31   -4.890   3432.12 /
   TROE/   0.045   880.10 2500000000.00 1786000000.00 /
 CH3O2+CH3 = 2CH3O                       1.000e+13    0.000  -1199.81
 2CH3O2 => 2CH3O+O2                      1.400e+16   -1.610   1859.46
 CH3O2+HO2 => CH3O+OH+O2                 2.470e+11    0.000  -1570.27
 CH3O2+CH2O => CH3O+OH+HCO               1.990e+12    0.000  11670.65
 CH3+HO2 = CH3O+OH                       1.000e+12    0.290   -685.95
 CH3+HO2 = CH4+O2                        1.190e+05    2.230  -3023.42
 CH3+H2O2 = CH4+HO2                      2.450e+04    2.470   5179.25
 CH3+HCO = CH4+CO                        2.650e+13    0.000      0.00
 CH3+CH2O = CH4+HCO                      3.320e+03    2.810   5860.42
 CH3+C = C2H2+H                          5.000e+13    0.000      0.00
 CH3+CH = C2H3+H                         3.000e+13    0.000      0.00
 CH3+T-CH2 = C2H4+H                      1.000e+14    0.000      0.00
 CH3+S-CH2 = C2H4+H                      1.200e+13    0.000   -571.22
 2CH3 = C2H5+H                           6.840e+12    0.100  10599.90
 CH2OH(+M) = CH2O+H(+M)                  7.370e+10    0.810  39581.74
   H2/2.00/ H2O/6.00/ CO2/2.00/ AR/0.85/ CO/1.50/ CH4/2.00/ 
   LOW  /  3.500e+21   -1.990  23998.57 /
   TROE/   0.844   900.00      1.00   3315.00 /
 CH3O(+M) = CH2O+H(+M)                   1.130e+10    1.210  24084.61
   H2/2.00/ H2O/6.00/ CO2/2.00/ AR/0.85/ CO/1.50/ CH4/2.00/ 
   LOW  /  6.020e+16   -0.550  18023.42 /
   TROE/   0.341    28.00   1000.00   2339.00 /
 CH3O+H = CH3+OH                         4.650e+13    0.280     28.68
 CH2OH+H = CH3+OH                        1.820e+13    0.160    112.33
 CH3O+H = CH2O+H2                        7.590e+08    1.500   -518.64
 CH2OH+H = CH2O+H2                       4.010e+06    1.860    148.18
 CH3O+O = CH2O+OH                        1.000e+13    0.000      0.00
 CH3O+OH = CH2O+H2O                      5.000e+12    0.000      0.00
 CH3O+O2 = CH2O+HO2                      2.290e+03    2.400    413.48
 CH2OH+O = CH2O+OH                       1.000e+13    0.000      0.00
 CH2OH+OH = CH2O+H2O                     5.000e+12    0.000      0.00
 CH2OH+O2 = CH2O+HO2                     2.410e+14    0.000   5016.73
 CH4+H = CH3+H2                          6.600e+08    1.620  10841.30
 CH4+O = CH3+OH                          1.020e+09    1.500   8599.43
 CH4+OH = CH3+H2O                        1.000e+08    1.600   3119.02
 CH4+T-CH2 = 2CH3                        2.460e+06    2.000   8269.60
 CH4+S-CH2 = 2CH3                        1.600e+13    0.000   -571.22
 CH4+CH = C2H4+H                         6.000e+13    0.000      0.00
 CH3OH(+M) = CH3+OH(+M)                  2.080e+18   -0.610  92545.41
   H2/2.00/ H2O/6.00/ CO2/2.00/ AR/0.70/ CO/1.50/ CH4/2.00/ C2H6/3.00/ 
   
   LOW  /  5.390e+51   -9.360 103974.67 /
   TROE/  0.7656    59.51   1910.00   9374.00 /
 CH3OH(+M) = S-CH2+H2O(+M)               3.120e+18   -1.020  91716.06
   H2/2.00/ H2O/6.00/ CO2/2.00/ AR/0.70/ CO/1.50/ CH4/2.00/ C2H6/3.00/ 
   
   LOW  /  7.760e+48   -8.680 100442.16 /
   TROE/  0.9922 47310.00    943.00  47110.00 /
 CH3OH+H = CH2OH+H2                      1.540e+06    2.350   5910.61
 CH3OH+H = CH3O+H2                       5.480e+06    2.150  11099.43
 CH3OH+O = CH2OH+OH                      3.880e+05    2.500   3099.90
 CH3OH+O = CH3O+OH                       1.300e+05    2.500   5000.00
 CH3OH+OH = CH2OH+H2O                    5.140e+04    2.620   -681.17
 CH3OH+OH = CH3O+H2O                     5.710e+03    2.620   -681.17
 CH3OH+CH3 = CH2OH+CH4                   4.900e+12    0.010  15078.87
 CH3OH+CH3 = CH3O+CH4                    2.310e+13   -0.480  14596.08
 CH3OH+O2 => CH2OH+HO2                   3.580e+05    2.270  42762.91
 CH3OH+HO2 = CH2OH+H2O2                  1.620e-04    4.990  10578.39
 CH3OH+HO2 = CH3O+H2O2                   8.650e-01    3.890  18413.00
 C2H+H(+M) = C2H2(+M)                    1.000e+17   -1.000      0.00
   H2/2.00/ H2O/6.00/ CO2/2.00/ AR/0.70/ CO/1.50/ CH4/2.00/ C2H6/3.00/ 
   
   LOW  /  2.600e+33   -4.800   1900.10 /
   TROE/  0.6464   132.00   1315.00   5566.00 /
 C2H+O = CH+CO                           5.000e+13    0.000      0.00
 C2H+OH = HCCO+H                         2.000e+13    0.000      0.00
 C2H+O2 = HCO+CO                         1.000e+13    0.000   -755.26
 C2H+H2 = C2H2+H                         2.360e+05    2.570    258.13
 HCCO+H = S-CH2+CO                       1.000e+14    0.000      0.00
 HCCO+CH = C2H2+CO                       5.000e+13    0.000      0.00
 HCCO+T-CH2 = C2H3+CO                    3.000e+13    0.000      0.00
 HCCO+CH3 = C2H4+CO                      5.000e+13    0.000      0.00
 HCCO+O => HCO+CO                        7.830e+13    0.000      0.00
 HCCO+O => CO2+CH                        4.820e+12    0.000      0.00
 HCCO+OH => CO+HCO+H                     2.620e+15   -0.410   1006.21
 HCCO+OH = T-CH2+CO2                     8.970e+04    2.090  -2196.46
 HCCO+O2 => CO2+CO+H                     4.780e+12   -0.140   1149.62
 HCCO+O2 => 2CO+OH                       1.910e+11   -0.020   1022.94
 C2H2+H(+M) = C2H3(+M)                   1.710e+10    1.270   2707.93
   H2/2.00/ H2O/6.00/ CO2/2.00/ AR/0.70/ CO/1.50/ CH4/2.00/ C2H6/3.00/ 
   
   LOW  /  9.060e+31   -4.660   3781.07 /
   TROE/   0.249    12.10  10000.00   5493.00 /
 C2H2+O = HCCO+H                         2.960e+09    1.280   2471.32
 C2H2+O = T-CH2+CO                       7.400e+08    1.280   2471.32
 C2H+OH = C2H2+O                         1.810e+13    0.000      0.00
 C2H2+OH = C2H+H2O                       2.630e+06    2.140  17060.23
 C2H2+OH = CH2CO+H                       2.100e+01    3.220   -420.65
 C2H2+OH = CH3+CO                        1.280e+09    0.730   2578.87
 C2H2+M = H2C2+M                         2.450e+15   -0.640  49698.85
   H2/2.00/ H2O/6.00/ CO2/2.00/ AR/0.70/ CO/1.50/ CH4/2.00/ C2H6/3.00/ 
   
 H2C2+O2 = 2HCO                          1.000e+13    0.000      0.00
 CH2CO+H = HCCO+H2                       5.000e+13    0.000   7999.52
 CH2CO+O = HCCO+OH                       1.000e+13    0.000   7999.52
 CH2CO+OH = HCCO+H2O                     7.500e+12    0.000   2000.48
 CH2CO+T-CH2 = HCCO+CH3                  3.600e+13    0.000  10999.04
 CH2CO+CH3 = HCCO+CH4                    7.500e+12    0.000  12999.52
 CH2CO+CH3 = C2H5+CO                     9.000e+10    0.000      0.00
 CH2CO+H = CH3+CO                        7.770e+08    1.450   2779.64
 CH2CO+OH = CH2OH+CO                     5.000e+12    0.000      0.00
 CH2CO+T-CH2 = C2H4+CO                   1.000e+12    0.000      0.00
 CH2CO+O = T-CH2+CO2                     1.750e+12    0.000   1350.38
 C2H3+H(+M) = C2H4(+M)                   6.080e+12    0.270    279.64
   H2/2.00/ H2O/6.00/ CO2/2.00/ AR/0.70/ CO/1.50/ CH4/2.00/ C2H6/3.00/ 
   
   LOW  /  1.400e+30   -3.860   3319.79 /
   TROE/   0.782   207.50   2663.00   6095.00 /
 C2H3+H = C2H2+H2                        3.000e+13    0.000      0.00
 C2H3+O = CH3+CO                         1.030e+13    0.210   -427.82
 C2H3+OH = C2H2+H2O                      5.000e+12    0.000      0.00
 C2H3+O2 = C2H2+HO2                      1.340e+06    1.610   -384.80
 C2H3+CH3 = C2H2+CH4                     9.030e+12    0.000   -764.82
 C2H3+O2 = CH2CHO+O                      3.800e+11    0.190     47.80
 C2H3+O2 = CH2O+HCO                      4.050e+17   -1.860   1166.35
 C2H3+O2 => CH2O+CO+H                    2.220e+16   -1.350    783.94
 C2H3+H2O2 = C2H4+HO2                    1.210e+10    0.000   -595.12
 C2H3+HCO = C2H4+CO                      9.000e+13    0.000      0.00
 CH2CHO = CH2CO+H                        1.320e+34   -6.570  48386.71
 CH2CHO = CH3+CO                         6.510e+34   -6.870  47194.07
 CH2CHO+O = CH2O+HCO                     3.170e+13    0.030   -394.36
 CH2CHO+O2 => CH2O+CO+OH                 1.810e+10    0.000      0.00
 CH2CHO+O2 => 2HCO+OH                    2.350e+10    0.000      0.00
 CH2CHO+H = CH2CO+H2                     1.100e+13    0.000      0.00
 CH2CHO+OH = CH2CO+H2O                   1.200e+13    0.000      0.00
 CH2CHO+H = CH3+HCO                      2.200e+13    0.000      0.00
 CH2CHO+OH = CH2OH+HCO                   3.010e+13    0.000      0.00
 CH2CHO+CH3 = C2H5+HCO                   4.900e+14   -0.500      0.00
 CH3CHO(+M) = CH3+HCO(+M)                2.720e+22   -1.740  86359.94
   H2/2.00/ H2O/6.00/ CO2/2.00/ AR/0.70/ CO/1.50/ CH4/2.00/ C2H6/3.00/ 
   
   LOW  /  1.630e+59  -11.340  95917.78 /
   TROE/       0     1.00      1.00  -6.7e+02 /
 CH3CHO+H => CH3+CO+H2                   1.310e+05    2.580   1218.93
 CH3CHO+H = CH2CHO+H2                    2.720e+03    3.100   5205.54
 CH3CHO+O => CH3+CO+OH                   1.950e+13    0.000   3539.67
 CH3CHO+OH => CH3+CO+H2O                 9.700e+05    2.110  -1687.38
 CH3CHO+O2 => CH3+CO+HO2                 5.000e+13    0.000  40000.00
 CH3CHO+HO2 => CH3+CO+H2O2               2.780e-03    4.500   4827.92
 CH3CHO+CH3 => CH3+CO+CH4                1.550e+00    3.700   4565.01
 CH3CHO+O = CH2CHO+OH                    2.920e+12    0.000   1809.27
 CH3CHO+OH = CH2CHO+H2O                  6.060e-01    3.900  -1068.36
 CH3CHO+HO2 = CH2CHO+H2O2                5.430e-02    4.100  18647.23
 CH3CHO+CH3 = CH2CHO+CH4                 1.440e+00    3.700   8857.55
 C2H4+M => H2C2+H2+M                     3.710e+16    0.000  67820.27
   H2/2.00/ H2O/6.00/ CO2/2.00/ AR/0.70/ CO/1.50/ CH4/2.00/ C2H6/3.00/ 
   
 C2H4+H(+M) = C2H5(+M)                   1.370e+09    1.460   1355.16
   H2/2.00/ H2O/6.00/ CO2/2.00/ AR/0.70/ CO/1.50/ CH4/2.00/ C2H6/3.00/ 
   
   LOW  /  2.890e+39   -6.640   5769.60 /
   TROE/    0.26   361.70  10000.00   9096.00 /
 C2H4+H = C2H3+H2                        1.160e+07    2.230  13336.52
 C2H4+O = CH2CHO+H                       7.660e+09    0.880   1140.06
 C2H4+O = T-CH2+CH2O                     7.150e+04    2.470    929.73
 C2H4+O = CH3+HCO                        3.890e+08    1.360    886.71
 C2H4+OH = C2H3+H2O                      2.230e+04    2.750   2215.58
 C2H4+O2 = C2H3+HO2                      4.220e+13    0.000  62100.86
 C2H4+O2 => CH3+CO2+H                    4.900e+12    0.420  75800.67
 C2H4+CH3 = C2H3+CH4                     1.050e+02    3.220  14306.88
 C2H4+CH3(+M) = N-C3H7(+M)               2.550e+06    1.600   5700.29
   H2/2.00/ H2O/6.00/ CO2/2.00/ AR/0.70/ CO/1.50/ CH4/2.00/ C2H6/3.00/ 
   
   LOW  /  3.000e+63  -14.600  18169.22 /
   TROE/  0.1894   277.00   8748.00   7891.00 /
 C2H5+H(+M) = C2H6(+M)                   5.210e+17   -0.990   1579.83
   H2/2.00/ H2O/6.00/ CO2/2.00/ AR/0.70/ CO/1.50/ CH4/2.00/ C2H6/3.00/ 
   
   LOW  /  1.990e+41   -7.080   6684.99 /
   TROE/  0.8422   125.00   2219.00   6882.00 /
 C2H5+H = C2H4+H2                        2.000e+12    0.000      0.00
 C2H5+OH = C2H4+H2O                      2.410e+13    0.000      0.00
 C2H5+O2 = C2H4+HO2                      1.920e+07    1.020  -2033.94
 C2H5+CH3 = C2H4+CH4                     1.180e+04    2.450   2920.65
 C2H5+O = CH3+CH2O                       3.170e+13    0.030   -394.36
 C2H5+HO2 = C2H5O+OH                     3.100e+13    0.000      0.00
 C2H5+HCO = C2H6+CO                      1.200e+14    0.000      0.00
 C2H5+HO2 = C2H6+O2                      3.000e+11    0.000      0.00
 C2H5+HO2 = C2H4+H2O2                    3.000e+11    0.000      0.00
 C2H5O(+M) = CH3+CH2O(+M)                6.310e+10    0.930  17098.47
   H2/2.00/ H2O/6.00/ CO2/2.00/ AR/0.70/ CO/1.50/ CH4/2.00/ C2H6/3.00/ 
   
   LOW  /  4.700e+25   -3.000  16532.03 /
   TROE/   0.426     0.30   2046.00 100000.00 /
 C2H5O+O2 = CH3CHO+HO2                   2.290e+10    0.000    874.76
 C2H6(+M) = 2CH3(+M)                     1.880e+50   -9.720 107342.26
   H2/2.00/ H2O/6.00/ CO2/2.00/ AR/0.70/ CO/1.50/ CH4/2.00/ C2H6/3.00/ 
   
   LOW  /  3.720e+65  -13.140 101579.83 /
   TROE/    0.39   100.00   1900.00   6000.00 /
 C2H6+H = C2H5+H2                        1.700e+05    2.700   5740.92
 C2H6+O = C2H5+OH                        3.170e+01    3.800   3130.98
 C2H6+OH = C2H5+H2O                      1.610e+06    2.220    740.92
 C2H6+HO2 = C2H5+H2O2                    2.610e+02    3.370  15913.00
 C2H6+S-CH2 = C2H5+CH3                   4.000e+13    0.000   -549.71
 C2H6+CH3 = C2H5+CH4                     3.450e+01    3.440  10389.58
 C3H6+H(+M) = N-C3H7(+M)                 2.500e+11    0.510   2619.50
   H2/2.00/ H2O/6.00/ CO2/2.00/ AR/0.70/ CO/1.50/ CH4/2.00/ C2H6/3.00/ 
   
   LOW  /  6.260e+38   -6.660   7000.48 /
   TROE/       1  1000.00   1310.00  48097.00 /
 C3H6+H(+M) = I-C3H7(+M)                 4.240e+11    0.510   1230.88
   H2/2.00/ H2O/6.00/ CO2/2.00/ AR/0.70/ CO/1.50/ CH4/2.00/ C2H6/3.00/ 
   
   LOW  /  8.700e+42   -7.500   4720.36 /
   TROE/       1  1000.00    645.40   6844.30 /
 N-C3H7+H = C2H5+CH3                     3.700e+24   -2.920  12504.78
 I-C3H7+H = C2H5+CH3                     1.400e+28   -3.940  15915.39
 N-C3H7+H = C3H6+H2                      1.800e+12    0.000      0.00
 I-C3H7+H = C3H6+H2                      3.200e+12    0.000      0.00
 N-C3H7+O = C2H5+CH2O                    9.600e+13    0.000      0.00
 I-C3H7+O = CH3CHO+CH3                   9.600e+13    0.000      0.00
 N-C3H7+OH = C3H6+H2O                    2.410e+13    0.000      0.00
 I-C3H7+OH = C3H6+H2O                    2.410e+13    0.000      0.00
 N-C3H7+O2 = C3H6+HO2                    3.700e+16   -1.630   3417.78
 I-C3H7+O2 = C3H6+HO2                    6.700e+20   -3.020   2504.78
 N-C3H7+CH3 = C3H6+CH4                   3.310e+12    0.000   -769.60
 N-C3H7+H(+M) = C3H8(+M)                 3.610e+13    0.000      0.00
   H2/2.00/ H2O/6.00/ CO2/2.00/ AR/0.70/ CO/1.50/ CH4/2.00/ C2H6/3.00/ 
   
   LOW  /  4.420e+61  -13.550  11357.55 /
   TROE/   0.315   369.00   3285.00   6667.00 /
 I-C3H7+H(+M) = C3H8(+M)                 2.400e+13    0.000      0.00
   H2/2.00/ H2O/6.00/ CO2/2.00/ AR/0.70/ CO/1.50/ CH4/2.00/ C2H6/3.00/ 
   
   LOW  /  1.700e+58  -12.080  11264.34 /
   TROE/   0.498  1314.00   1314.00  50000.00 /
 C3H8(+M) = C2H5+CH3(+M)                 1.290e+37   -5.840  97387.67
   H2/2.00/ H2O/6.00/ CO2/2.00/ AR/0.70/ CO/1.50/ CH4/2.00/ C2H6/3.00/ 
   
   LOW  /  5.640e+74  -15.740  98718.93 /
   TROE/    0.31    50.00   3000.00   9000.00 /
 C3H8+H = N-C3H7+H2                      9.360e+07    1.970   8200.29
 C3H8+H = I-C3H7+H2                      7.600e+07    1.860   5599.90
 C3H8+O = N-C3H7+OH                      1.900e+05    2.680   3716.54
 C3H8+O = I-C3H7+OH                      4.760e+04    2.710   2105.64
 C3H8+OH = N-C3H7+H2O                    5.150e+03    2.940   -418.26
 C3H8+OH = I-C3H7+H2O                    1.810e+05    2.440   -535.37
 C3H8+CH3 = N-C3H7+CH4                   9.030e-01    3.650   7153.44
 C3H8+CH3 = I-C3H7+CH4                   1.510e+00    3.460   7153.44
 C3H8+HO2 = N-C3H7+H2O2                  4.760e+04    2.550  16491.40
 C3H8+HO2 = I-C3H7+H2O2                  9.630e+03    2.600  13910.13
 C2H2+CH = C3H2+H                        1.890e+14    0.000      0.00
 C3H2+O = C2H+HCO                        1.360e+14    0.000      0.00
 C3H2+OH = C2H2+HCO                      1.000e+13    0.000      0.00
 C3H2+O2 = HCCO+CO+H                     1.250e+11    0.000    999.04
 C3H2+CH = C4H2+H                        5.000e+13    0.000      0.00
 C3H2+T-CH2 = N-C4H3+H                   5.000e+13    0.000      0.00
 C3H2+CH3 = C4H4+H                       5.000e+12    0.000      0.00
 C3H2+HCCO = N-C4H3+CO                   1.000e+13    0.000      0.00
 C2H+HCO = C3H2O                         5.000e+13    0.000      0.00
 C3H2O+H = C2H2+HCO                      3.460e+12    0.440   5463.67
 C3H2O+H => C2H+CO+H2                    1.310e+05    2.580   1218.93
 C3H2O+O => C2H+CO+OH                    1.950e+13    0.000   3539.67
 C3H2O+OH => C2H+CO+H2O                  9.100e+05    2.110  -1687.38
 C3H2O+O2 => C2H+CO+HO2                  5.000e+13    0.000  40000.00
 C3H2O+HO2 => C2H+CO+H2O2                2.780e-03    4.500   4827.92
 C3H2O+CH3 => C2H+CO+CH4                 1.550e+00    3.700   4565.01
 C2H2+HCCO = C3H3+CO                     1.000e+11    0.000   2999.52
 C2H+CH3 = C3H3+H                        2.410e+13    0.000      0.00
 C2H2+S-CH2 = C3H3+H                     3.970e+15   -0.570     -4.78
 C3H2+H(+M) = C3H3(+M)                   1.020e+13    0.270    279.64
   H2/2.00/ H2O/6.00/ CO2/2.00/ AR/0.70/ CO/1.50/ CH4/2.00/ C2H6/3.00/ 
   
   LOW  /  2.800e+30   -3.860   3319.79 /
   TROE/   0.782   207.50   2663.00   6095.00 /
 C3H3+H = C3H2+H2                        1.100e+10    1.130  13929.25
 C3H3+OH = C2H3CHO                       2.100e+01    3.220   -420.65
 C3H3+OH = C2H4+CO                       1.280e+09    0.730   2578.87
 C3H3+OH = C3H2+H2O                      1.130e+05    2.280   2466.54
 C3H3+O = C3H2O+H                        1.380e+14    0.000      0.00
 C3H3+O2 = CH2CO+HCO                     1.700e+05    1.700   1500.96