!
!Mevel, R. and Chatelain, K. and Boettcher, P. A. and Shepherd, J. E.,
!Low temperature oxidation of n-hexane in a flow reactor. Fuel, 125, 282-293, 2014.
!
!449 species
!2860 reactions
!
!Note:  This version does not contain constants for transport data as it was used 
!for a one-dimensional plug model of a flow reactor.  
!
! June 5, 2018


ELEMENTS
H C O N AR
END

SPECIES

! Excited species

OH*   CH*   CO2* ! C2*

! Species added for C2* chemistry

!C3  C3H

AR
NC6H14     O2         H2         CH4        C2H6       C3H8       C2H4
CO         CO2        H          O          OH         HO2        H2O
H2O2       C2H2       C3H6       C4H8-1     C4H6       C5H10-1

C4H722     NC4H9CO    CH2CHCHCO  CjHCHCHCO
 
CH2O       CH3CHO     C2H5CHO    NC3H7CHO   C2H3CHO    CH3OH      NC4H10     
C3H4-a     C3H4-p     C5H813     C5H814     C2H5OH     C2C5H10    t2C5H10    
CH3COCH3   CH2CO      C2H4O1,2   C4H4       NC5H12     iC4H8      
Cpd        iC3H7CHO   isOpe      iC3H5CHO   but2m2d    but2m1d    C6H6       
t2C4H8     C2C4H8     iC4H10     butyNe     butyN2     CH3OCHO    NC4H9CHO
C5H11CHO   C6H12-1    C6H12-2    C6H12-3    HexCy5O2   HexCy4O1   HexCy4O2
HexCy3O1   
!!!!!
N2         HCO        CH3        CH3O       
CH3O2      C2H3       C2H5       CH3CO      pC4H9      CHOCHO     NC3H7CO    
CH2OCHO    CH3OCO     C3ket12    C3ket13    C3ket21    C2H3COCH3  sC3H5CHO   
aC3H5CHO   but1OOH2*O but3OOH2*O but4OOH2*O but2OOH1*O but3OOH1*O but4OOH1*O 
C4H8Cy1O3  C4H8Cy1O4  C4H8Cy1O2  C4H8Cy2O3  CyC5H8     CH3COCHO     
CHOC2H4CHO C4ald3OxO  C4ald2OxO  NC3H7COCH3 etCOC2H3   OC4H6      C2H5COCH3  
!!! MetHyletHaNOate speCies !!!
C2H5COCO
!!! MetHylpeNtaNOate speCies !!!
C4H5CO     CHOC2H4CO  C4H8CHO-5  C4H8CHO-4  
C4H8CHO-3  C4H8CHO-2
!!! MetHylHexaNOate speCies !!!
C5H10CHO-6 C5H10CHO-5 C5H10CHO-4 C5H10CHO-3 
C5H10CHO-2 C5H11CO    C5H11-1    C5H11-2    C5H11-3    peNt3O2    peNt1O2H2j 
peNt1O2H4j peNt3O2H1j peNt2O2H1j peNt2O2H3j peNt2O2H5j peNt3O2H2j C5H913   
C5H924     C5H914     peNt1O2H   peNt2O2H   peNt3O2H   peNt1O2    peNt2O2
peNt1O2H3j peNt2O2H4j peNtCy4O1  peNtCy4O2  peNtCy3O1  peNt1O     peNt2O     
peNt3O     C5H9CO     C5ald4OxO  C5ald3OxO  
C5ald2OxO  aCetOCH2O2 aCetOCH2O  C2H5COCH2O
!!! MetHylHeptaNOate speCies !!!
C6H13-1    C6H13-2    C6H13-3    Hex3O2     Hex4O2H2j  Hex4O2H2O2 Hex1O      
Hex2O      Hex3O      
Hex1O2H4j  Hex2O2H5j  Hex1O2H4O2 Hex2O2H5O2 Hex1O2     Hex2O2     
Hex1O2H3j  Hex2O2H4j  Hex1O2H3O2 Hex2O2H4O2 prCOCH3-3 
etCOetO2   etCOetO    prCOCH2O2  prCOCH2O   prCOet-1O2 
prCOet-1O  C6H1126    C6H1125    NprCOetpO  NprCOetpO2 C6H1116    C6H1115    
C6H1114    C6H1113    Hex1O2H2j  Hex2O2H3j  Hex3O2H2j  Hex3O2H4j  Hex1O2H2O2 
Hex2O2H3O2 Hex3O2H2O2 Hex3O2H4O2 Hex4O2H1j  Hex4O2H1O2 Hex2O2H1j  Hex2O2H1O2 
Hex2O2H1*O Hex3O2H1*O C6H1124    Hex4O2H1*O Hex5O2H1*O Hex1O2H2*O Hex3O2H2*O 
Hex4O2H2*O Hex5O2H2*O Hex2O2H3*O Hex4O2H3*O Hex1O2H4*O Hex2O2H4*O Hex1O2H    
Hex2O2H    Hex3O2H    C6H1131    C6H1013    Hex1O2H5j  Hex1O2H5O2 Hex3O2H1j  
Hex3O2H1O2 Hex1O2H3*O C6H12CO    C6ald4OxO  C6ald3OxO  
etCOetCO   prCOmeCO   C4H9COCHO  C4H9COCO   prCOCH3-1O 

!!! MetHylOCtaNOate speCies !!!
NC4H9COCH2 
iC4H9      iC4H7      tC4H9      iC3H7CO    HO2iC4H7iO     
tC3H6CHO   iC3H5CO    isOpy      but3m1dt   tC4H8iO2H  HO2tC4H7iO 
iC4H8O     iC4H8OH    iC4H7O     iC4H6OH    iC4H7OH    iC4H9O2H   iC4H9O     
iC4H8tO2H  C6H5  
MC6H6      C6H7C      HEX1245    FULVENE    C6H5O      C5H5       C6H615     
C6H5OH     CyC5H9     CyC5H7     lC5H5      C2O
but2m1d3   tC5H11     C4H91O2    C4H81OOH2j C4H81OOH3j C4H81OOH4j 
but1OOH2O2 but1OOH3O2 but1OOH4O2 C4H91O2H   pC4H9O     C4H92O2    C4H82OOH1j 
C4H82OOH3j C4H82OOH4j but2OOH1O2 but2OOH3O2 but2OOH4O2 C4H92O2H   sC4H9O     
aCetOO2    aCetOO     C3H6CHO-4O C5H7       NC3H7      CH  
C2H        CH3COCH2   CH2OH      HCCO       C4H711     pC2H4OH    CH2CHO  
iC3H7      C2H5CO     C2H5O2     CH3O2H     C2H5O2H    C2H3O1,2   CH3CO2     
C2H4O2H    CH3CO3     CH3CO3H    C2H3CO     CHOCO      C3H5O      prOOH1-2   
prOOH1-3   prOOH2-1   prOOH1-2O2 prOOH1-3O2 prOOH2-1O2 NC3H7O     iC3H7O   
NC3H7O2H   iC3H7O2H   NC3H7O2    iC3H7O2    C3H6O1-3   sC4H9      C3H5-a     
C3H5-s     C3H5-t     HOC4H6     C3H3       C3H2       C3H6O1-2   C4H712
C4H5O      OCHO       CH2(s)     C4H6O2H    C3H62OH    C3H5OH 
CH2CCH2OH  aCetOCH2   C2H5COCH2  C3H61OH    C3H61OH2OO C3H62OH1OO pC4H8OH-2
C4j3OOH2*O C43OO2*O   CH3CHCOCH3 CH3CHCO    C3H6CHO-2  C3H6CHO-3  sC4H8OH-1
C2H5CHCO   CH3CHOCHO  CH3CHCHO   sC3H5CO    iC3H6CHO   C3H6CHO-4  sC4H8OH-3
iC4H5      NC4H5      aC3H5CO    C2H3CHCHO  iC4H3      
NC4H3      C4H2       C4H        H2C4O      CH3CHOH    H2CCCCH2   
CH3CCCH2   C4H713     CH3CHCCH   C4H612     C3H3O      C4H714     
C3H4OH     C3H4O      C3H4O2H    C2H2OH     HCCOH      CH3CH2O    
CH3COCO    meCOmeCO   C2         C4H6O25    C4H6O23
iC3H6CO    CH2        C          NC3H7COCH2 etCOetp    prCOCH3-2  prCOet-1   
NprCOetp   prCOCH3-1  sC4H9OH    etCOet     etCOets    C4H4O
petCOC2H3  setCOC2H3  pC2H4CHO   C5H915
NprCOet    prCOet-2   prCOet-3   NprCOets   C4H73O2    C4H71O2    C4H63OOH4j 
C4H61OOH4j C3H6CHO-2O   
C3H6CHO-4O2 C3H6CHO-3O C3H6CHO-3O2 
C3H6CHO-2O2 C4H63OOH4O2 C4H61OOH4O2 C4H54O2H3*O C4H54O2H1*O
O2tC4H8iO2H O2iC4H8iO2H peNt1O2H2O2 peNt1O2H3O2 C2H5COCH2O2
peNt1O2H4O2 peNt2O2H1O2 peNt2O2H3O2 peNt2O2H4O2 peNt2O2H5O2 peNt3O2H1O2 
peNt3O2H2O2 peNt2O2H1*O peNt3O2H1*O peNt4O2H1*O peNt1O2H2*O peNt3O2H2*O 
peNt4O2H2*O peNt5O2H2*O peNt1O2H3*O peNt2O2H3*O prCOCH3-1O2 pC4H8OH-2OO
NC4H9COCH2O NC4H9COCH2O2 sC4H8OH-1OO sC4H8OH-3OO
! Above checked

! Not included in reaction model: iC4H9CO2  HOCH2O 


END

REACTIONS

!§§§§§§§§§§§§§§§§§§§§§§§§§§§§§§§§§§§§§§§§§§§§§§§§§§§§§§§§§§§§§§§§§
!§§§§§§§§§§§   OH*, CH*, C2* and CO2* reactions   §§§§§§§§§§§§§§§§
!§§§§§§§§§§§§§§§§§§§§§§§§§§§§§§§§§§§§§§§§§§§§§§§§§§§§§§§§§§§§§§§§§


! OH* REACTIONS

!N2O+H=OH*+N2                     1.60E+14   0.00      50300       ! 30       Hidaka J. phy. chem., 89, 4903 
H+O+M=OH*+M                      6.00E+14   0.00       6940       ! 31       Petersen 1 AIAA Paper, n° 2004-4164, 10 p.
OH*+AR=OH+AR                     2.17E+10   0.50       2060       ! 32       Paul et al. 
OH*+H2O=OH+H2O                   5.92E+12   0.50       -861       ! 33       Tamura et al.
OH*+H=OH+H                       1.50E+12   0.50          0       ! 34       Hidaka Bull. Chem. Soc. Jpn., 58,p 2911.
OH*+H2=OH+H2                     2.95E+12   0.50       -444       ! 35       Tamura et al.
OH*+O2=OH+O2                     2.10E+12   0.50       -482       ! 36       Tamura et al.
OH*+O=OH+O                       1.50E+12   0.50          0       ! 37       Hidaka Bull. Chem. Soc. Jpn., 58,p 2911.
OH*+OH=OH+OH                     1.50E+12   0.50          0       ! 38       Hidaka Bull. Chem. Soc. Jpn., 58,p 2911.
OH*=OH                           1.40E+06   0.00          0       ! 39       Hidaka Bull. Chem. Soc. Jpn., 58,p 2911.
CH+O2=OH*+CO                     3.24E+14  -0.40       4150       ! 40        Petersen IJCK 2006, 38, p 714.
OH*+CO2=OH+CO2                   2.75E+12   0.50       -968       ! 4         Tamura et al.
OH*+CO=OH+CO                     3.23E+12   0.50       -787       !           Tamura et al.
OH*+CH4=OH+CH4                   3.36E+12   0.50       -635       !           Tamura et al.

! CH* REACTIONS

C2+OH=CO+CH*                     1.11E+13   0.00          0       !           Smith et al. Combustion and Flame 2002, vol 131, p 59.
C2H+O=CO+CH*                     6.20E+12   0.00          0       !           Smith et al. Combustion and Flame 2002, vol 131, p 59.
C2H+O2=CO2+CH*                   2.17E+10   0.00          0       !           Devriendt et al. Chem. Phys. Lett., 1996, vol 261, p 450-456.
C+H+M=CH*+M                      3.63E+13   0.00          0       !           Smith et al. Combustion and Flame 2002, vol 131, p 59.
CH*=CH                           1.86E+06   0.00          0       !           Smith et al. Combustion and Flame 2002, vol 131, p 59.
CH*+AR=CH+AR                     4.00E+10   0.5           0       !           Smith et al. Combustion and Flame 2002, vol 131, p 59.
CH*+O2=CH+O2                     2.48E+06   2.14      -1720       !           Smith et al. Combustion and Flame 2002, vol 131, p 59.
CH*+H2O=CH+H2O                   5.30E+13   0.00          0       !           Smith et al. Combustion and Flame 2002, vol 131, p 59. 
CH*+H2=CH+H2                     1.47E+14   0.00       1360       !           Smith et al. Combustion and Flame 2002, vol 131, p 59.
CH*+CO2=CH+CO2                   2.41E-01   4.30      -1694       !           Smith et al. Combustion and Flame 2002, vol 131, p 59.
CH*+CO=CH+CO                     2.44E+12   0.50          0       !           Smith et al. Combustion and Flame 2002, vol 131, p 59. 
CH*+CH4=CH+CH4                   1.73E+13   0.00        167       !           Smith et al. Combustion and Flame 2002, vol 131, p 59.

! C2* + C3 + C3H Reactions taken from Kathrotia et al. + Lauer thesis + Heghes thesis

!CH2(s)+C=H2+C2*                  2.40E+12   0.00          0       !
!C3+O=CO+C2*                      5.20E+11   0.00          0       !
!C2*=C2                           1.00E+07   0.00          0       !
!C2*+O2=C2+O2                     4.80E+13   0.00          0       !
!C2*+CO2=C2+CO2                   4.80E+13   0.00          0       !
!C2*+H2O=C2+H2O                   4.80E+13   0.00          0       !
!C2*+N2=C2+N2                     4.80E+13   0.00          0       !
!C2*+CO=C2+CO                     4.80E+13   0.00          0       !
!C2*+CH4=C2+CH4                   4.80E+13   0.00          0       !
!C2*+H=C2+H                       4.80E+13   0.00          0       !
!C2*+H2=C2+H2                     4.80E+13   0.00          0       !
!C2*+OH=C2+OH                     4.80E+13   0.00          0       !
!C2*+AR=C2+AR                     4.80E+13   0.00          0       !
!C3+H2=C3H+H                      4.00E+05   0.00      22035       !
!C3+OH=CO+C2H                     2.00E+13   0.00          0       !   
!C3+O2=CO2+C2                     9.00E+11   0.00      11019       !   
!C3+O=CO+C2                       1.00E+12   0.00          0       !
!!!C2H2+CH2=C3H3+H                  1.21E+13   0.00       6627       ! 
!!!CH+C2H2 =C3H2+H                  2.11E+14   0.00       -122       ! Already in base model
!C3H2+O=HCO+C2H                   4.00E+13   0.00          0       ! 
!!!C3H2+OH=HCO+C2H2                 1.00E+13   0.00          0       ! 
!CH+C2H=C3H+H                     5.00E+13   0.00          0       ! 
!C3H+H2=C3H2+H                    4.00E+05   2.4        1002       ! 
!C3H+O=CO+C2H                     4.00E+13   0.00          0       ! 
!C3H+OH=CO+C2H2                   2.00E+13   0.00          0       !  
!C3H+O2=CO+HCCO                   3.00E+13   0.00          0       ! 


! CO2* REACTIONS published in Kopp et al. Appl Phys B (2012) 107:529–538

CO+O+M=CO2*+M               2.20E+15  0.00  3700                   ! Alternative constant: Sulzmann et al.The Journal of Chemical Physics 1965, 42, 3969-3979.
H2/2/ O2/6/ H2O/6/ AR/0.5/ CO/1.5/ CO2/3.5/ CH4/2/ C2H6/3/ ! He/0.5/
CO2*+AR=CO2+AR                5.20E+10  0.50     0
CO2*+H2O=CO2+H2O              5.92E+12  0.50  -861
CO2*+CO2=CO2+CO2              2.75E+12  0.50  -968
CO2*+CO=CO2+CO                3.23E+12  0.50  -787
CO2*+H=CO2+H                  1.50E+12  0.50     0
CO2*+H2=CO2+H2                2.95E+12  0.50  -444
CO2*+O2=CO2+O2                2.10E+12  0.50  -482
CO2*+O=CO2+O                  1.50E+12  0.50     0
CO2*+OH=CO2+OH                1.50E+12  0.50     0
CO2*+CH4=CO2+CH4              3.36E+12  0.50  -635
CO2*=CO2                      1.40E+06  0.00     0

!-----------------------------------------------------------------------------------------------------------------
!--------------------------- P-DepeNdeNt rxNx: 10 Atm fits--------------------------------------------
CH3+OH=CH2OH+H                          2.640E+19   -1.8     8068.0 !(DEAN, 1BAR 87)
CH3+OH=CH3O+H                           5.740E+12   -0.23   13931.0 !(DEAN, 1BAR 87)
CH3+OH=CH2(s)+H2O                       8.900E+18   -1.8     8067.0 !(DEAN, 1BAR 87)
CH3+OH=CH2O+H2                          3.190E+12   -0.53   10810.0 !(DEAN, 1BAR 87)

C2H3+O2=CH2CHO+O                        2.460E+15   -0.78    3135.0  !1 atm/BOzelli&DeaN 1993, J. PHys.CHem,vOl.97,pp.4427-4441
C2H3+O2=CH2O+HCO                        1.090E+23   -3.29    3892.0  !1 atm/BOzelli&DeaN 1993, J. PHys.CHem,vOl.97,pp.4427-4441
C2H3+O2=CHOCHO+H                        1.910E+18   -2.25    2398.0  !1 atm/BOzelli&DeaN 1993, J. PHys.CHem,vOl.97,pp.4427-4441
C2H3+O2=C2H2+HO2                        5.190E+15   -1.26    3310.0  !1 atm/BOzelli&DeaN 1993, J. PHys.CHem,vOl.97,pp.4427-4441
C2H2+CH3=C3H4-p+H                       2.560E+09    1.10   13644.0  !99DAV/LAW RRKM 1 atm 
C2H2+CH3=C3H4-a+H                       5.140E+09    0.86   22153.0  !99DAV/LAW RRKM 1 atm
C2H2+CH3=C3H5-t                         4.990E+22   -4.39   18850.0  !99DAV/LAW RRKM 1 atm
C2H2+CH3=C3H5-s                         3.200E+35   -7.76   13300.0  !99DAV/LAW RRKM 1 atm
C2H2+CH3=C3H5-a                         2.680E+53  -12.82   35730.0  !99DAV/LAW RRKM 1 atm
C3H4-p = C3H4-a                         5.150E+60  -13.93   91117.0  !99DAV/LAW RRKM 1 atm 
C3H4-a+H = C3H5-s                       5.400E+29   -6.09   16300.0  !99DAV/LAW RRKM 1 atm
C3H4-a+H = C3H5-t                       9.460E+42   -9.43   11190.0  !99DAV/LAW RRKM 1 atm
C3H4-a+H = C3H5-a                       1.520E+59  -13.54   26949.0  !99DAV/LAW RRKM 1 atm
C3H4-p+H = C3H4-a+H                           6.27E+17  -0.91    10079.0    !99DAV/LAW RRKM 1 atm
C3H4-p+H = C3H5-t                             1.66E+47 -10.58    13690.0    !99DAV/LAW RRKM 1 atm
C3H4-p+H = C3H5-s                             5.50E+28 -5.74      4300.0    !99DAV/LAW RRKM 1 atm
C3H4-p+H = C3H5-a                             4.91E+60 -14.37    31644.0    !99DAV/LAW RRKM 1 atm
C3H5-a+O2=C2H3CHO+OH                    3.360E+05     1.81  19190.0 ! Lee & BOzzelli 2005
C3H5-a+O2=C3H4-a+HO2                    2.060E+04     2.19   9590.0 ! Lee & BOzzelli 2005-8kCal
C3H5-a+O2=CH2CHO+CH2O                   3.080E+09     0.37  10910.0 ! Lee & BOzzelli 2005-6kCal
C3H5-a+O2=C2H2+CH2O+OH                  9.710E+20    -2.70  24980.0 ! Lee & BOzzelli 2005
C3H5-a = C3H5-t                              7.06E+56 -14.08    75868.0    !99DAV/LAW RRKM 1 atm
C3H5-a = C3H5-s                              5.00E+51 -13.02    73300.0    !99DAV/LAW RRKM 1 atm
C3H5-t = C3H5-s                            1.50E+48 -12.71    53900.0    !99DAV/LAW RRKM 1 atm

!*********************************************************************************************
!****************************************** BASE C0 ******************************************
!*********************************************************************************************
!
H2+M = H+H+M						4.577E+19 -1.40  1.0438E+05
   H2/2.5/ H2O/12/
   CO/1.9/ CO2/3.8/
O+O+M = O2+M                                	6.165E+15 -0.50  0.000E+00
   H2/2.5/ H2O/12/
   CO/1.9/ CO2/3.8/
O+H+M = OH+M                                	4.714E+18 -1.00  0.000E+00
   H2/2.5/  H2O/12/
   !AR/0.75/ He/0.75/
   CO/1.9/  CO2/3.8/
H+O2 = O+OH                                 	1.04E+14   0.00  1.5286E+04
!=================================================================================
! MAIN BATH GAS IS N2 (COmmeNt tHis reaCtiON OtHerwise)
H+O2(+M) = HO2(+M)                          	4.65084E+12  0.44  0.000E+00
   LOW/6.366E+20 -1.72  5.248E+02/
   TROE/0.5  1E-30  1E+30/
   H2/2.0/ H2O/14/ O2/0.78/ CO/1.9/ CO2/3.8/
!=================================================================================
H2O+M = H+OH+M                              	6.064E+27 -3.322 1.2079E+05
   H2/3.0/  H2O/0.0/
   !He/1.10/ 
   N2/2.00/ O2/1.5/
   CO/1.9/ CO2/3.8/
O+H2 = H+OH						3.818E+12  0.00  7.948E+03
   DUPLICATE
O+H2 = H+OH						8.792E+14  0.00  1.917E+04
   DUPLICATE
H2+OH = H2O+H						0.216E+09  1.51  0.343E+04
OH+OH = O+H2O						3.34E+04   2.42  -1.93E+03
H2O2(+M) = OH+OH(+M)            			2.00E+12   0.90  4.8749E+04 !
   LOW/2.49E+24 -2.30 4.8749E+04/
   TROE/0.43 1E-30 1E+30/
   H2O/7.5/ CO2/1.6/
   N2/1.5/  O2/1.2/
   !He/0.65/ 
   H2O2/7.7/
   H2/3.7/ CO/2.8/
HO2+OH = H2O+O2                             	1.930E+20 -2.49  5.840E+02 !Burke et al., PrOC.COmbust.INst. 34(2012)
dup
HO2+OH = H2O+O2                             	1.210E+09  1.24 -1.307E+03 !Burke et al., PrOC.COmbust.INst. 34(2012)
dup
HO2+O = O2+OH                               	2.850E+10  1.00 -7.2393E+02
HO2+H = H2+O2                                 	2.750E+06  2.09 -1.451E+03
HO2+H = OH+OH                               	7.079E+13  0.00  2.950E+02
HO2+HO2 = H2O2+O2                           	4.200E+14  0.00  1.1982E+04
   DUPLICATE
HO2+HO2 = H2O2+O2                           	1.300E+11  0.00 -1.6293E+03
   DUPLICATE
H2O2+OH = HO2+H2O                           	1.740E+12  0.00  3.180E+02
   DUPLICATE
H2O2+OH = HO2+H2O                           	7.590E+13  0.00  7.270E+03
   DUPLICATE
H2O2+H = HO2+H2                             	4.820E+13  0.00  7.950E+03
H2O2+H = H2O+OH                             	2.410E+13  0.00  3.970E+03
H2O2+O = OH+HO2                             	9.550E+06  2.00  3.970E+03
H2O+H2O = H+OH+H2O                          	1.006E+26 -2.44  1.2018E+05

!*********************************************************************************************
!****************************************** BASE C1 ******************************************
!*********************************************************************************************

!*************
! CO reaCtiONs
CO+HO2=CO2+OH                  1.150E+05      2.278   17550.0  !(HONgyaN SuN et al, PCI 31-p439 (2007)
CO+O+m=CO2+m                   2.830E+13      0.0     -4540.0 
H2O/16.25/ H2/2.50/ CO/1.875/ CO2/3.75/ CH4/16.25/ C2H6/16.25/ !AR/0.75/
CO+O2=CO2+O                    2.530E+12      0.0     47700.0 
CO+OH = CO2+H                  7.046E+04     2.053    -355.67  !06JOS/WANG
DUP
CO+OH = CO2+H                  5.757E+12    -0.664     331.83  !06JOS/WANG
DUP

!**************
! HCO reaCtiONs
HCO+m=H+CO+m                   1.850E+17     -1.0     17090.0    !TimONeN et al., J.PHys.CHem. 91(1987)5325-
H2O/16.25/ H2/1.9/ CO/1.875/ CO2/3.75/ CH4/16.25/ C2H6/16.25/ !AR/1.0/ He/1.25/
HCO+OH=CO+H2O                  1.000E+14      0.0         0.0    !(BOWMAN 70)
HCO+O=CO+OH                    3.000E+13      0.0         0.0    !(BROWNE 69)
HCO+O=CO2+H                    3.000E+13      0.0         0.0    !(WARNATZ 84)
HCO+H=CO+H2                    7.224E+13      0.0         0.0    !(GUTMAN 86)
HCO+O2=CO+HO2                  7.580E+12      0.0       410.0    !TimONeN et al., J.PHys.CHem. 92(1988)651-
HCO+HO2=CO2+OH+H               3.000E+13      0.0         0.0    !TsaNg et al., J.PHys.CHem.Ref.Data 15(1986)1087-
HCO+HCO=CH2O+CO                1.810E+13      0.0         0.0    !TsaNg et al., J.PHys.CHem.Ref.Data 15(1986)1087-
HCO+HCO=H2+CO+CO               3.000E+12      0.0         0.0    !TsaNg et al., J.PHys.CHem.Ref.Data 15(1986)1087-

!************************
! CH2O (fOrmaldeHyde) reaCtiONs
H+HCO(+M)<=>CH2O(+M)                     1.090E+12     .480    -260.00
     LOW  /  2.470E+24   -2.570    425.00/
     TROE/   .7824  271.00  2755.00  6570.00 /
H2/2.00/ H2O/6.00/ CH4/2.00/ CO/1.50/ CO2/2.00/ C2H6/3.00/ !AR/ .70/ 
CH2O+OH=HCO+H2O                        3.432E+09      1.18    -447.0 !TsaNg et al., J.PHys.CHem.Ref.Data 15(1986)1087-
CH2O+HO2=HCO+H2O2                      1.120E+06      2.00   12000.0    !(HIDAKA 1993/4)
CH2O+O=HCO+OH                          1.807E+13      0.00    3088.0 !TsaNg et al., J.PHys.CHem.Ref.Data 15(1986)1087-
CH2O+H=HCO+H2                          2.190E+08      1.77    3000.0    !TsaNg et al., J.PHys.CHem.Ref.Data 15(1986)1087-
CH2O+O2=HCO+HO2                        1.230E+06      3.00   52000.0    !(HIDAKA1993)

!****************
! CH3OH reaCtiONs
  CH3OH(+m)=CH2OH+H(+m) 2.690E+16 -0.08  98940.0    !(HELD 98)
	LOW/ 2.34E+40 -6.33 103100.0 /
	TROE/0.773 693.0 5333.0 1E-10 /
  CH3OH(+m)=CH3+OH(+m) 1.900E+16 -0.0   91730.0    !(HELD 98)
	LOW/ 2.95E+44 -7.35 95760.0 /
	TROE/ 0.414 279.0 5459.0 1E-10 /
CH3OH+O2=CH2OH+HO2             2.050E+13      0.0     44910.0    !(TSANG 87)
CH3OH+O2=CH3O+HO2              2.500E+12      0.0     55000.0    !MILAN
CH3OH+HO2=CH2OH+H2O2           1.1300E+13     0.0     19360.0    !(ARONOWITZ 79)*2
CH3OH+OH=CH2OH+H2O             7.100E+06      1.8      -596.0    !BOtt aNd COHeN, IJCK, 23:1075 (1991) 
CH3OH+OH=CH3O+H2O              1.000E+06      2.1       496.7    !BOtt aNd COHeN, IJCK, 23:1075 (1991) 
CH3OH+O=CH2OH+OH               1.630E+13      0.0      5030.0    !(KEIL  81)
CH3OH+H=CH2OH+H2               1.440E+13      0.0      6095.0    !(HELD 94)
CH3OH+H=CH3O+H2                3.600E+12      0.0      6095.0    !(HELD 94)
CH3OH+H=CH3+H2O                1.700E+13      0.0      5311.0    !CRIBB 1992 *3 (COMBUST. & FLAME 88 p186)
CH3OH+CH2O=CH3O+CH3O           1.549E+12      0.0     79570.0    !(PITZ 84)
CH3OH+CH3=CH2OH+CH4            3.566E+11      0.00     8663.0    !(DOMBROWSKY89 DAG)
CH3OH+CH3=CH3O+CH4             4.677E+05      2.328   12764.0    !(DOMBROWSKY89 DAG)

!****************
! CH2OH reaCtiONs
CH2OH+m=CH2O+H+m               1.000E+14      0.0     25100.0    !(WARNATZ 84)
H2O/1.00/ CO/1.875/ CO2/3.75/ H2/2.50/ CH4/16.25/ C2H6/16.25/ !AR/0.75/
CH2OH+H=CH2O+H2                3.000E+13      0.0         0.0    !(WARNATZ 84)
CH2OH+O2=CH2O+HO2              2.410E+14      0.0      5017.0    !(GROTHEER88)
 	DUP
CH2OH+O2=CH2O+HO2              1.510E+15     -1.0         0.0    !(GROTHEER88)
 	DUP
CH2OH+O=CH2O+OH                4.220E+13      0.0         0.0    !TsaNg, JPC Ref. Data, 16:471 (1987)
CH2OH+OH=CH2O+H2O              2.410E+13      0.0         0.0    !TsaNg, JPC Ref. Data, 16:471 (1987)
CH2OH+HO2=CH2O+H2O2            1.200E+13      0.0         0.0    !TsaNg, JPC Ref. Data, 16:471 (1987)
CH2OH+HCO=CH3OH+CO             1.500E+13      0.0         0.0    !FriedriCHs et al. (2004)
CH2OH+CH2O=CH3OH+HCO           1.292E-01      4.56  6.596E+03
                         rev / 9.630E+03      2.90  1.311E+04 /
CH2OH+CH3O=CH3OH+CH2O          0.400E+13      0.0         0.0    !MILAN
CH2OH+CH2OH=CH2O+CH3OH         0.400E+13      0.0         0.0    !MILAN

!***********************
! CH3O reaCtiONs
CH3O+m=CH2O+H+m                4.880E+15      0.0     22773.0    !(WANTUCK 88)
H2O/16.25/ CO/1.875/ CO2/3.75/ H2/2.50/ CH4/16.25/ C2H6/16.25/ !AR/0.75/
CH3O+HO2=CH2O+H2O2             3.000E+11      0.0         0.0 !TsaNg et al., J.PHys.CHem.Ref.Data 15(1986)1087-
CH3O+OH=CH2O+H2O               1.000E+13      0.0         0.0    !(MILLER 82)
CH3O+O=CH2O+OH                 1.300E+13      0.0         0.0    !(ZELLNER 87)
CH3O+H=CH2O+H2                 2.000E+13      0.0         0.0    !(HOYERMANN 81)
CH3O+O2=CH2O+HO2               2.350E+10      0.0      1788.0 !DeMOre et al., JPL PubliCatiON 97-4(1997)1-266
!CH3O+O2=CH2O+HO2               4.710E+10      0.0      2290.0 !OrlaNdO et al., CHem.Rev. 103(2003)4657-4689
CH3O+CH2O=CH3OH+HCO            1.150E+11      0.0      1280.0    !(KAISER 86)
CH3O+CO=CH3+CO2                1.570E+13      0.0     11804.0 !TsaNg et al., J.PHys.CHem.Ref.Data 15(1986)1087-
CH3O+HCO=CH3OH+CO              9.000E+13      0.0         0.0 !TsaNg et al., J.PHys.CHem.Ref.Data 15(1986)1087-
CH3O+C2H5=CH2O+C2H6            2.410E+13      0.0         0.0 !TsaNg et al., J.PHys.CHem.Ref.Data 15(1986)1087-
CH3O+C2H3=CH2O+C2H4            2.410E+13      0.0         0.0 !TsaNg et al., J.PHys.CHem.Ref.Data 15(1986)1087-
CH3O+C2H4=CH2O+C2H5            1.200E+11      0.0      7000.0 !TsaNg et al., J.PHys.CHem.Ref.Data 15(1986)1087-
CH3OH+CH3O=CH3OH+CH2OH         3.010E+11      0.0      4070.0    !(TSANG 87)

!**************
! CH4 reaCtiONs
CH3+HO2=CH4+O2                 1.189E+05      2.228   -3022.0 !Jasper et al., PrOC.COmb.INst. 32(2009)279-286
CH4(+m)=CH3+H(+m)              2.400E+16      0.0    104913.0 
    LOW /4.5E+17 0.0 90800/ 
    TROE /0.64 1.0E-15 3195.0 12126.0/ 
CH4+H=CH3+H2                   2.250E+04      3.0      8756.6 !TsaNg et al., J.PHys.CHem.Ref.Data 15(1986)1087-
CH4+O=CH3+OH                   6.920E+08      1.56     8490.0 !BaulCH 92
CH4+OH=CH3+H2O                 1.600E+06      2.10     2462.0 !WARNatz 84
CH4+CH2=CH3+CH3                4.300E+12      0.0     10038.0 !BOHlaNd et al., Ber.BuNseNges.PHys.CHem. 89(1985)1110-

!**************
! CH3 reaCtiONs
H+CH2(+M)<=>CH3(+M)                      6.000E+14     .000        .00
     LOW  /  1.040E+26   -2.760   1600.00/
     TROE/   .5620  91.00  5836.00  8552.00/
H2/2.00/ H2O/6.00/ CH4/2.00/ CO/1.50/ CO2/2.00/ C2H6/3.00/ !AR/ .70/ 
CH+H2(+M)<=>CH3(+M)                      1.970E+12     .430    -370.00
   LOW/ 4.820E+25  -2.80  590.0 /
   TROE/ .578  122.0  2535.0  9365.0 /
H2/2.00/ H2O/6.00/ CH4/2.00/ CO/1.50/ CO2/2.00/ C2H6/3.00/ !AR/ .70/ 
CH3+HO2=CH3O+OH                1.000E+12      0.2688   -687.5   !Jasper et al., PrOC.COmb.INst. 32(2009)279-286
CH3+H2O2=CH4+HO2               6.100E+09      0.0      -596.0
CH3+O=H+CH2O                   5.060E+13      0.0         0.0 !GRI3.0
CH3+O2=CH2O+OH                 6.380E+11      0.00    13510.0 !SriNivasaN et al., J.PHys.CHem.A 111(2007)11589-11591
CH3+O2=CH3O+O                  1.320E+14      0.0     31398.0 !BaulCH 92
CH3+CH3=C2H5+H                 3.010E+13      0.0     13513.0 !BaulCH 92
CH3+CH3(+m)=C2H6(+m)           9.210E+16     -1.174     635.8 
    LOW /1.135E+36 -5.246 1705/ 
    TROE /0.405 1120.0 69.6 1.00E+15/
CH3+CH3O=CH4+CH2O              2.409E+13      0.0         0.0 !TsaNg et al., J.PHys.CHem.Ref.Data 15(1986)1087-
CH3+CH2OH=CH4+CH2O             2.410E+12      0.0         0.0 !TsaNg, J.PHys.CHem.Ref.Data 16(1987)471-
CH3+O2(+m)=CH3O2(+m)           7.830E+08      1.2         0.0 !BaulCH 92
    LOW/5.800E+25 -3.30 0.0/
    TROE /0.664 100000.0 10/
CH3+H=CH2+H2                   6.030E+13      0.0     15100.0 !BaulCH 92
CH3+OH=CH2+H2O                 7.230E+13      0.0      2780.0 !BaulCH et al., J.PHys.CHem.Ref.Data 23(1994)847-1033
CH3+HCO=CO+CH4                 1.210E+14      0.0         0.0 !TsaNg et al., J.PHys.CHem.Ref.Data 15(1986)1087-
CH3+CH2O=HCO+CH4               7.800E-08      6.10     1970.0 !BaulCH et al., J.PHys.CHem.Ref.Data 23(1994)847-1033

!**************
! CH2 reaCtiONs
CH2+OH=CH+H2O                  1.130E+07      2.0      3000.0
CH2+OH=CH2O+H                  2.500E+13      0.0         0.0
CH2+O=CO+H+H                   5.000E+13      0.0         0.0
CH2+O=CO+H2                    6.000E+13      0.0         0.0
CH2+H=CH+H2                    3.500E+14      0.0         0.0
CH2+O2=HCO+OH                  4.300E+10      0.0      -500.0
CH2+O2=CO2+H2                  3.450E+11      0.0      1000.0
CH2+O2=CO2+H+H                 1.600E+12      0.0      1000.0
CH2+O2=CO+H2O                  1.870E+10      0.0     -1000.0
CH2+O2=CO+OH+H                 8.640E+10      0.0      -500.0
CH2+O2=CH2O+O                  5.000E+13      0.0      9000.0
CH2+CO2=CH2O+CO                1.100E+11      0.0      1000.0
CH2+CH2=C2H2+H2                3.200E+13      0.0         0.0
CH2+CH2=C2H2+H+H               4.000E+13      0.0         0.0
CH2+CH3=C2H4+H                 4.000E+13      0.0         0.0
CH2+CH=C2H2+H                  4.000E+13      0.0         0.0
CH2+C2H6=CH3+C2H5              6.500E+12      0.0      7911.0
CH2+C2H2=H+C3H3                1.200E+13      0.0      6620.0
CH2+C2H4=C3H6                  4.300E+12      0.0     10038.0

!***************
! CH2(S) reaCtiONs
CH2(s)+m=CH2+m                   1.000E+13      0.0         0.0
H2O/16.25/ CO/1.875/ CO2/3.75/ CH4/16.25/ C2H6/16.25/ H2/2.50/ !AR/0.75/
CH2(s)+O2=CO+OH+H                3.000E+13      0.0         0.0
CH2(s)+H2=CH3+H                  7.000E+13      0.0         0.0
CH2(s)+H=CH2+H                   2.000E+14      0.0         0.0
CH2(s)+H=CH+H2                   3.000E+13      0.0         0.0
CH2(s)+O=CO+H+H                  1.500E+13      0.0         0.0
CH2(s)+O=CO+H2                   1.500E+13      0.0         0.0
CH2(s)+OH=CH2O+H                 3.000E+13      0.0         0.0
CH2(s)+HO2=CH2O+OH               3.000E+13      0.0         0.0
CH2(s)+H2O2=CH3O+OH              3.000E+13      0.0         0.0
CH2(s)+H2O(+m)=CH3OH(+m)         4.820E+17     -1.2      1145.0
    LOW/1.880E+38 -6.36 5040.0/
    TROE /0.6027 208 3922 10180/
H2O/16.25/ CO/1.875/ CO2/3.75/ CH4/16.25/ C2H6/16.25/ H2/2.50/ !AR/0.75/
CH2(s)+CH2O=CH3+HCO              1.200E+12      0.0         0.0
CH2(s)+HCO=CH3+CO                1.800E+13      0.0         0.0
CH2(s)+CH3=C2H4+H                1.800E+13      0.0         0.0
CH2(s)+CH4=CH3+CH3               4.000E+13      0.0         0.0
CH2(s)+C2H6=CH3+C2H5             1.200E+14      0.0         0.0
CH2(s)+C2H4=C3H5-a+H             1.300E+14      0.0         0.0
CH2(s)+C2H2=C3H3+H               1.800E+14      0.0         0.0
CH2(s)+H2O=CH2+H2O               3.000E+13      0.0         0.0
CH2(s)+CO2=CH2O+CO               3.000E+12      0.0         0.0
CH2(s)+CH2CO=C2H4+CO             1.600E+14      0.0         0.0

!*************
! CH reaCtiONs
CH+OH=HCO+H                      3.000E+13      0.0         0.0 
CH+O=CO+H                        5.700E+13      0.0         0.0   !GRI
CH+H=C+H2                        1.100E+14      0.0         0.00  !GRI