!Reaction Mechanism for H2-O2-NO2 mixtures and small (C1-C2-C3) hydrocarbons
!
! R. Mevel and S. Javoy and F. Lafosse and N. Chaumeix and G. Dupr\'e
! and Paillard, C. -E., Hydrogen-nitrous oxide delay time: shock tube experimental study
! and kinetic modelling, Proceedings of The Combustion Institute, 2009,  volume 32,359-366.
!doi:10.1016/j.proci.2008.06.171
!
!Mevel, R. and Shepherd, J. E., Ignition delay-time behind reflected shock waves 
!of small hydrocarbons-nitrous oxide(-oxygen) mixtures}, Shock Waves, 2015,  volume 25,
!217-229. https://doi.org/10.1007/s00193-014-0509-4


ELEMENTS
 N   H   O   C   AR 
END
SPECIES

! H2-O2-NOx

O         N2O       N 
OH*       H         H2        O2        OH        HO2       
H2O2      NH        NO        NH2       N2O3      HNO       NO2       
NNH       NH3       N2H2      HONO      NO3       HNO3      N2H3
N2H4      N2O4      NH2OH     HNOH      H2NO      HNNO      AR        
N2        H2O       


! HC species

CH4       CH3       T-CH2     S-CH2     CH        CH*       C 
C2H6      C2H5      C2H4      C2H3      C2H2      H2C2      C2H
C2
C3H8      N-C3H7    I-C3H7    C3H6      A-C3H5    S-C3H5    T-C3H5 
A-C3H4    P-C3H4    C3H3      C3H2
C4H6      I-C4H5    N-C4H5    C4H4      I-C4H3    N-C4H3    C4H2

CO        CO2       HCO       CH2O      CH2OH     CH3O      CH3O2     
CH3OH      
HCCO      HCCOH     CH2CO     C2H5O     CH3CHO    CH2CHO    C2O
C3H2O     C2H3CHO   C3H5O
C2H5O2    C4H       P-C4H9    P-C4H8   
C4H7      I-C4H8    T-C4H9    T-C4H9O   
CH3COCH3  I-C4H7    I-C3H5CHO I-C4H7O      


! HCN species

H2CN      HCN       HCNO      CNO       HNCO      NCO       HOCN      
NCN       CN        C2N2      

! Nitro-nitrate species

CH3NO2    CH3NO     CH3ONO2   H2CNO2    CH3ONO     
                 
END
REACTIONS

!§§§§§§§§§§§§§§§§§§§§§§§§§§§§§§§§§§§§§§§§§§§§§§§§§§§§§§§§§§§§§§§§§
!§§§§§§§§§§§§§§§§§§§§   H2-O2 reactions   §§§§§§§§§§§§§§§§§§§§§§§§
!§§§§§§§§§§§§§§§§§§§§§§§§§§§§§§§§§§§§§§§§§§§§§§§§§§§§§§§§§§§§§§§§§


! H2 REACTIONS

H2+M=H+H+M                       4.57E+19  -1.40     104380       !  1       Tsang & Hampson,J.Phys.Chem.Ref.Data,15,1986.
    H2/2.5/ H2O/12/ AR/0.0/
H2+AR=H+H+AR                     5.84E+18  -1.10     104380       !  2       Tsang & Hampson,J.Phys.Chem.Ref.Data,15,1986.
H2+O2=OH+OH                      2.50E+12   0.00      39000       !  3       Konnov 
H+H+H=H2+H                       3.20E+15   0.00          0       !  4       Konnov
H+HO2=H2O+O                      3.00E+13   0.00       1720       !  5       Konnov


! O REACTIONS

O+H2=OH+H                        9.25E+14   0.00      19354       !  6       S. Javoy, V. Naudet, S. Abid, C. Paillard, Int. j. chem. kinet. 32 (2000) 686-695.

O+O+M=O2+M                       6.16E+15  -0.50          0       !  7       Tsang & Hampson,J.Phys.Chem.Ref.Data,15,1986.
    H2/2.5/ H2O/12/ AR/0.0/
O+O+AR=O2+AR                     1.89E+13   0.00      -1788       !  8       Tsang & Hampson,J.Phys.Chem.Ref.Data,15,1986.


! H REACTIONS

!H+O2=O+OH                        1.91E+14   0.00      16439       !  9       Pirraglia et. al. (TJK)###
H+O2=O+OH                        1.04E+14   0.00      15286 


H+O2(+M)=HO2(+M)                 1.48E+12   0.60          0       ! 10       Mueller et al Proc. Comb. Ins. 27, (1998)
    LOW /3.482E+16  -0.411  -1115/
    TROE /0.5  1E-30  1E30/
    H2/2.5/ H2O/12/ AR/0.0/
H+O2(+AR)=HO2(+AR)               1.48E+13   0.60          0       ! 11       TJK baseline recommendation Should this be x 10^12 or 10 ^13?
    LOW/1.49E+15   0.00  -1000/
    TROE/0.45   1E-30  1E+30/
H+O+M=OH+M                       4.71E+18  -1.00          0       ! 12       Tsang & Hampson,J.Phys.Chem.Ref.Data,15,1986
    H2/2.5/ H2O/12/ AR/.75/


! OH REACTIONS

OH+H2=H2O+H                      2.16E+08   1.51       3430       ! 13       Michael & Sutherland,J.Phys.Chem.,92,3853,1988
H2O+O=OH+OH                      2.97E+06   2.02      13400       ! 14       Sutherland et. al. Proc Comb. Ins., 28 51 (1990)
H2O2(+M)=OH+OH(+M)               2.95E+14   0.00      48430       ! 15       Brouwer,Cobos,Troe,Duba,&Crim,J.Chem.Phys.86,6171,1987.
    LOW /1.20E+17 0.00 45500/
    TROE /0.5 1E-90 1E+90/
    H2/2.5/ H2O/12/ AR/0/
H2O2(+AR)=OH+OH(+AR)	         2.95E+14   0.00      48430       ! 16       Brouwer,Cobos,Troe,Duba,&Crim,J.Chem.Phys.86,6171,1987.    
    LOW /1.90E+16 0.00 43000/
    TROE /0.5 1E-29 1E+31/
OH+H+M=H2O+M                     2.21E+22  -2.00          0       ! 17       Tsang & Hampson,J.Phys.Chem.Ref.Data,15,1986
    H2/2.5/ H2O/12/ AR/0.0/
OH+H+AR=H2O+AR                   8.41E+21  -2.00          0       ! 18       Tsang & Hampson,J.Phys.Chem.Ref.Data,15,1986


! HO2 REACTIONS

HO2+O=O2+OH                      0.33E+14   0.00          0       ! 19       Baulch et al., JPC Ref Data, 21:411 (1992)
HO2+H=H2+O2                      1.66E+13   0.00        823       ! 20       Mueller et al. IJCK 31, 113 (1995)
HO2+H=OH+OH                      7.08E+13   0.00        295       ! 21       Mueller et al. IJCK 31, 113 (1995)
HO2+OH=H2O+O2                    2.89E+13   0.00       -497       ! 22       Keyser,L.F., J.Phys.Chem.92,1193,1988
HO2+HO2=H2O2+O2                  4.20E+14   0.00      11982       ! 23       Hippler,Troe,Willner,J.Chem.Phys.93,1755,1990
DUP
HO2+HO2=H2O2+O2                  1.30E+11   0.00      -1629       ! 24       Hippler,Troe,Willner,J.Chem.Phys.93,1755,1990
DUP


! H2O2 REACTIONS

H2O2+O=OH+HO2                    9.55E+06   2.00       3970       ! 25       Tsang & Hampson,J.Phys.Chem.Ref.Data,15,1986
H2O2+H=H2O+OH                    0.24E+14   0.00       3970       ! 26       Tsang and Hampson, JPC Ref. Data, 15:1087 (1986)
H2O2+H=HO2+H2                    4.82E+13   0.00       7950       ! 27       Tsang & Hampson,J.Phys.Chem.Ref.Data,15,1986
H2O2+OH=H2O+HO2                  1.00E+12   0.00          0       ! 28       Hippler et. al. Double Exponential fit by(TJK)###
DUP
H2O2+OH=H2O+HO2                  5.80E+14   0.00       9557       ! 29       Hippler et. al. Double Exponential fit by(TJK)###
DUP 


!§§§§§§§§§§§§§§§§§§§§§§§§§§§§§§§§§§§§§§§§§§§§§§§§§§§§§§§§§§§§§§§§§
!§§§§§§§§§§§§§§§§§   OH* and CH* reactions   §§§§§§§§§§§§§§§§§§§§§
!§§§§§§§§§§§§§§§§§§§§§§§§§§§§§§§§§§§§§§§§§§§§§§§§§§§§§§§§§§§§§§§§§


! OH* REACTIONS

N2O+H=OH*+N2                     1.60E+14   0.00      50300       ! 30       Hidaka J. phy. chem., 89, 4903 
H+O+M=OH*+M                      6.00E+14   0.00       6940       ! 31       Petersen 1 AIAA Paper, n° 2004-4164, 10 p.
OH*+AR=OH+AR                     2.17E+10   0.50       2060       ! 32       Paul et al. 
OH*+H2O=OH+H2O                   5.92E+12   0.50       -861       ! 33       Tamura et al.
OH*+H=OH+H                       1.50E+12   0.50          0       ! 34       Hidaka Bull. Chem. Soc. Jpn., 58,p 2911.
OH*+H2=OH+H2                     2.95E+12   0.50       -444       ! 35       Tamura et al.
OH*+O2=OH+O2                     2.10E+12   0.50       -482       ! 36       Tamura et al.
OH*+O=OH+O                       1.50E+12   0.50          0       ! 37       Hidaka Bull. Chem. Soc. Jpn., 58,p 2911.
OH*+OH=OH+OH                     1.50E+12   0.50          0       ! 38       Hidaka Bull. Chem. Soc. Jpn., 58,p 2911.
OH*=OH                           1.40E+06   0.00          0       ! 39       Hidaka Bull. Chem. Soc. Jpn., 58,p 2911.
CH+O2=OH*+CO                     3.24E+14  -0.40       4150       ! 40        Petersen IJCK 2006, 38, p 714.
OH*+CO2=OH+CO2                   2.75E+12   0.50       -968       ! 4         Tamura et al.
OH*+CO=OH+CO                     3.23E+12   0.50       -787       !           Tamura et al.
OH*+CH4=OH+CH4                   3.36E+12   0.50       -635       !           Tamura et al.

! CH* REACTIONS

C2+OH=CO+CH*                     1.11E+13   0.00          0       !           Smith et al. Combustion and Flame 2002, vol 131, p 59.
C2H+O=CO+CH*                     6.20E+12   0.00          0       !           Smith et al. Combustion and Flame 2002, vol 131, p 59.
C2H+O2=CO2+CH*                   2.17E+10   0.00          0       !           Devriendt et al. Chem. Phys. Lett., 1996, vol 261, p 450-456.
C+H+M=CH*+M                      3.63E+13   0.00          0       !           Smith et al. Combustion and Flame 2002, vol 131, p 59.
CH*=CH                           1.86E+06   0.00          0       !           Smith et al. Combustion and Flame 2002, vol 131, p 59.
CH*+AR=CH+AR                     4.00E+10   0.5           0       !           Smith et al. Combustion and Flame 2002, vol 131, p 59.
CH*+O2=CH+O2                     2.48E+06   2.14      -1720       !           Smith et al. Combustion and Flame 2002, vol 131, p 59.
CH*+H2O=CH+H2O                   5.30E+13   0.00          0       !           Smith et al. Combustion and Flame 2002, vol 131, p 59. 
CH*+H2=CH+H2                     1.47E+14   0.00       1360       !           Smith et al. Combustion and Flame 2002, vol 131, p 59.
CH*+CO2=CH+CO2                   2.41E-01   4.30      -1694       !           Smith et al. Combustion and Flame 2002, vol 131, p 59.
CH*+CO=CH+CO                     2.44E+12   0.50          0       !           Smith et al. Combustion and Flame 2002, vol 131, p 59. 
CH*+CH4=CH+CH4                   1.73E+13   0.00        167       !           Smith et al. Combustion and Flame 2002, vol 131, p 59.


!§§§§§§§§§§§§§§§§§§§§§§§§§§§§§§§§§§§§§§§§§§§§§§§§§§§§§§§§§§§§§§§§§
!§§§§§§§§§§§§§§§§§§§§§   NOx reactions   §§§§§§§§§§§§§§§§§§§§§§§§§
!§§§§§§§§§§§§§§§§§§§§§§§§§§§§§§§§§§§§§§§§§§§§§§§§§§§§§§§§§§§§§§§§§


! NO REACTIONS

N2+O=>NO+N                       1.80E+14   0.00      76100       ! 41       Konnov
NO+N=>N2+O                       2.11E+13   0.00          0       ! 42       Baulch
N+O2=NO+O                        9.00E+09   1.00       6500       ! 43       Konnov
NO+M=N+O+M                       9.64E+14   0.00     148300       ! 44       Konnov
N2 /1.5/ NO /3.0/ 
NO+NO=N2+O2                      3.00E+11   0.00      65000       ! 45       Konnov
NO+O(+M)=NO2(+M)                 1.30E+15  -0.75          0       ! 46       Konnov
    LOW /4.72E+24 -2.87 1551/
    TROE /0.962 10.0 7962/
    AR/0.6/ NO2/6.2/ NO/1.8/ O2/0.8/ N2O/4.4/ H2O/10.0/
HO2+NO=NO2+OH                    2.11E+12   0.00       -479       ! 47       Howard, J. Am. Chem. Soc., 102, 6937, 1980. (sugg. by Tsang)
N+OH=NO+H                        2.00E+13   0.00          0       ! 48       Mick and Roth, J. phys. chem. 98 (1994) 5310-5313.


! NO2 REACTIONS

NO2+O=NO+O2                      3.91E+12   0.00       -238       ! 49       Konnov
NO2+N=N2O+O                      8.40E+11   0.00          0       ! 50       Konnov
NO2+N=NO+NO                      1.00E+12   0.00          0       ! 51       Konnov
NO2+NO=N2O+O2                    1.00E+12   0.00      60000       ! 52       Konnov
NO2+NO2=NO+NO+O2                 3.95E+12   0.00      27590       ! 53       Konnov
NO2+NO2=NO3+NO                   1.13E+04   2.58      22720       ! 54       Konnov
NO2+O(+M)=NO3(+M)                1.33E+13   0.00          0       ! 55       Konnov
    LOW /1.49E+28 -4.08 2467/
    TROE /0.86 10.0 2800/
    H2O/10.0/ O2/0.8/ H2/2.0/ 
NO2+NO(+M)=N2O3(+M)              1.60E+09   1.40          0       ! 56       Konnov
     LOW /1.0E+33  -7.7  0.0/
     N2/1.36/
NO2+H2=HONO+H	                 7.33E+11   0.00      28810       ! 57       Modified Rate from Tsang&Herron with our H2/NO2 and H2/O2/NOx experiments	
NO2+H=NO+OH                      1.32E+14   0.00        362       ! 58       Ko,T. and Fontijn,A.,J.Phys.Chem.,95,3984,1991.


! N2O REACTIONS

N2O(+M)=N2+O(+M)                 1.69E+11   0.00      57653       ! 59a      Zuev Khim. Fiz., 1991, 10,p 52. 
    LOW /7.2E+14 0 57410/                                         ! 59b      Javoy IJCK 41 (2009) 357-375 
    O2/1.4/ N2/1.7/ H2O/12.0/ NO/3.0/ N2O/3.5/                    !          Konnov 
N2O+O=N2+O2                      3.69E+12   0.00      15944       ! 60       Meagher J. Phys. Chem. A, 2000, 104(25), p 6003. 
N2O+O=NO+NO                      9.15E+13   0.00      27693       ! 61       Meagher J. Phys. Chem. A, 2000, 104(25), p 6003.
N2O+N=N2+NO                      1.00E+13   0.00      20000       ! 62       Konnov
N2O+NO=N2+NO2                    2.75E+14   0.00      50000       ! 63       Konnov
N2O+H=N2+OH                      2.53E+10   0.00       4550       ! 64       Marshall,P.,Ko,T.&Fontijn,A.,J.Phys.Chem.93,1922,1989 double fitted. 
DUP
N2O+H=N2+OH                      2.23E+14   0.00      16750       ! 65       Marshall,P.,Ko,T.&Fontijn,A.,J.Phys.Chem.93,1922,1989 double fitted.  
DUP
N2O+OH=HO2+N2		         2.00E+12   0.00      40000       ! 66       Miller by personal communication, 1994.


! NO3 REACTIONS

NO3=NO+O2                        2.50E+06   0.00      12120       ! 67       Konnov
NO3+NO2=NO+NO2+O2                1.20E+11   0.00       3200       ! 68       Konnov
NO3+O=NO2+O2                     1.02E+13   0.00          0       ! 69       Konnov
NO3+NO3=NO2+NO2+O2               5.12E+11   0.00       4870       ! 70       Konnov


! N2O4 REACTIONS

N2O4(+M)=NO2+NO2(+M)             4.05E+18  -1.10      12840       ! 71       Konnov
     LOW /1.96E+28  -3.8  12840./
     AR/0.8/ N2O4/2.0/ NO2/2.0/
N2O4+O=N2O3+O2                   1.21E+12   0.00          0       ! 72       Konnov


! N2O3 REACTIONS

N2O3+O=NO2+NO2                   2.71E+11   0.00          0       ! 73       Konnov


! N2 REACTIONS

N2+M=N+N+M                       1.00E+28  -3.33     225000       ! 74       Konnov
    N/5/ O/2.2/


! HONO REACTIONS

N2O4+H2O=HONO+HNO3               2.52E+14   0.00      11590       ! 75       Konnov
N2O3+H2O=HONO+HONO               3.79E+13   0.00       8880       ! 76       Konnov
NO+OH(+M)=HONO(+M)               2.00E+12  -0.05       -721       ! 77       Konnov
    LOW /5.08E+23 -2.51 -67.6/
    TROE /0.62 10.0 100000.0/
    H2O/10.0/ O2/2.0/ AR/0.75/ H2/2.0/  
NO2+H+M=HONO+M                   1.40E+18  -1.50        900       ! 78       Konnov
HONO+H=HNO+OH                    5.64E+10   0.86       4970       ! 79       Konnov
HONO+H=NO+H2O                    8.12E+06   1.89       3840       ! 80       Konnov
HONO+O=OH+NO2                    1.20E+13   0.00       5960       ! 81       Konnov
HONO+OH=H2O+NO2                  1.69E+12   0.00       -517       ! 82       Konnov
HONO+NH=NH2+NO2                  1.00E+13   0.00          0       ! 83       Konnov
HONO+HONO=H2O+NO2+NO             1.00E+13   0.00       8540       ! 84       Konnov
HONO+NH2=NO2+NH3                 5.00E+12   0.00          0       ! 85       Konnov


! HNO REACTIONS

HNO+NO=N2O+OH                    8.50E+12   0.00      29580       ! 86       Konnov
HNO+NO+NO=HNNO+NO2               1.60E+11   0.00       2090       ! 87       Konnov
H+NO(+M)=HNO(+M)                 1.52E+15  -0.41          0       ! 88       Konnov
    LOW /4.00E+20 -1.75 0.0/
    H2O/10.0/ O2/1.5/ AR/0.75/ H2/2.0/ 
HNO+H=NO+H2                      4.46E+11   0.72        655       ! 89       Konnov
HNO+OH=NO+H2O                    1.30E+07   1.88       -956       ! 90       Konnov
HNO+O=OH+NO                      5.00E+11   0.50       2000       ! 91       Konnov
HNO+O=NO2+H                      5.00E+10   0.00       2000       ! 92       Konnov
HNO+O2=NO+HO2                    2.20E+10   0.00       9140       ! 93       Konnov
HNO+N=NO+NH                      1.00E+11   0.50       2000       ! 94       Konnov
HNO+N=H+N2O                      5.00E+10   0.50       3000       ! 95       Konnov
HNO+NH2=NH3+NO                   2.00E+13   0.00       1000       ! 96       Konnov
HNO+HNO=N2O+H2O                  3.63E-03   3.98       1190       ! 97       Konnov
HNO+HNO=HNOH+NO                  2.00E+08   0.00       4170       ! 98       Konnov 
HNO+NO2=HONO+NO                  6.02E+11   0.00       2000       ! 99       Konnov


! HNO3 REACTIONS
NO2+OH(+M)=HNO3(+M)              2.41E+13   0.00          0       !100       Konnov
    LOW /6.42E+32 -5.49 2350.0/
    TROE /1.0 10.0 1168.0/
    H2O/10.0/ O2/2.0/ AR/0.75/ H2/2.0/  
NO+HO2+M=HNO3+M                  1.50E+24  -3.50       2200       !101       Konnov
HNO3+H=H2+NO3                    5.56E+08   1.53      16400       !102       Konnov
HNO3+H=H2O+NO2                   6.08E+01   3.29       6290       !103       Konnov
HNO3+H=OH+HONO                   3.82E+05   2.30       6980       !104       Konnov
HNO3+OH=NO3+H2O                  1.03E+10   0.00      -1240       !105       Konnov


! HNNO REACTIONS

NH+NO+M=HNNO+M                   1.63E+23  -2.60       1820       !106       Konnov
HNNO+H=N2O+H2                    2.00E+13   0.00          0       !107       Konnov
HNNO+H=NH2+NO                    1.00E+12   0.00          0       !108       Konnov
HNNO+O=N2O+OH                    2.00E+13   0.00          0       !109       Konnov
HNNO+OH=H2O+N2O                  2.00E+13   0.00          0       !110       Konnov
HNNO+OH=HNOH+NO                  1.00E+12   0.00          0       !111       Konnov
HNNO+NO=N2+HONO                  2.60E+11   0.00       1610       !112       Konnov
HNNO+NO=NNH+NO2                  3.20E+12   0.00        540       !113       Konnov
HNNO+NO=N2O+HNO                  1.00E+12   0.00          0       !114       Konnov
HNNO+NO2=N2O+HONO                1.00E+12   0.00          0       !115       Konnov
HNNO+NO2=NNH+NO3                 1.00E+13   0.00      17000       !116       Konnov


! H2NO REACTIONS

H2NO+M=H2+NO+M                   7.83E+27  -4.29      60300       !117       Konnov
  H2O/10.0/
H2NO+M=HNO+H+M                   2.80E+24  -2.83      64915       !118       Konnov
  H2O/10.0/
H2NO+M=HNOH+M                    1.10E+29  -3.99      43980       !119       Konnov
  H2O/10.0/
H2NO+H=HNO+H2                    3.00E+07   2.00       2000       !120       Konnov
H2NO+H=NH2+OH                    5.00E+13   0.00          0       !121       Konnov
H2NO+O=HNO+OH                    3.00E+07   2.00       2000       !122       Konnov
H2NO+OH=HNO+H2O                  2.00E+07   2.00       1000       !123       Konnov
H2NO+HO2=HNO+H2O2                2.90E+04   2.69      -1600       !124       Konnov
H2NO+NH2=HNO+NH3                 3.00E+12   0.00       1000       !125       Konnov
H2NO+O2=HNO+HO2                  3.00E+12   0.00      25000       !126       Konnov
H2NO+NO=HNO+HNO                  2.00E+07   2.00      13000       !127       Konnov
H2NO+NO2=HONO+HNO                6.00E+11   0.00       2000       !128       Konnov


! HNOH REACTIONS

HNOH+M=HNO+H+M                   2.00E+24  -2.84      58935       !129       Konnov
   H2O/10.0/
HNOH+H=HNO+H2                    4.80E+08   1.50        380       !130       Konnov
HNOH+H=NH2+OH                    4.00E+13   0.00          0       !131       Konnov
HNOH+O=HNO+OH                    7.00E+13   0.00          0       !132       Konnov
    DUPLICATE
HNOH+O=HNO+OH                    3.30E+08   1.50       -360       !133       Konnov
    DUPLICATE 
HNOH+OH=HNO+H2O                  2.40E+06   2.00      -1190       !134       Konnov
HNOH+HO2=HNO+H2O2                2.90E+04   2.69      -1600       !135       Konnov
HNOH+NH2=HNO+NH3                 1.80E+06   1.94      -1150       !136       Konnov
HNOH+NO2=HONO+HNO                6.00E+11   0.00       2000       !137       Konnov
HNOH+O2=HNO+HO2                  3.00E+12   0.00      25000       !138       Konnov
HNOH+HNO=NH2OH+NO                1.00E+12   0.00       3000       !139       Konnov


! NH2OH REACTIONS

NH2OH+OH=HNOH+H2O                2.50E+13   0.00       4250       !140       Konnov


!§§§§§§§§§§§§§§§§§§§§§§§§§§§§§§§§§§§§§§§§§§§§§§§§§§§§§§§§§§§§§§§§§
!§§§§§§§§§§§§§§§§§§§§   NxHy reactions   §§§§§§§§§§§§§§§§§§§§§§§§§
!§§§§§§§§§§§§§§§§§§§§§§§§§§§§§§§§§§§§§§§§§§§§§§§§§§§§§§§§§§§§§§§§§


 
! NH REACTIONS From Allen et al. Comb. Flame  109, 449 (1997)

NH+O2=HNO+O                      3.89E+13   0.00      17890       !141       Mertens,J.D.,Chang,Hanson,&Bowman,IJCK,23,173,1991 
NH+O2=NO+OH                      7.60E+10   0.00       1530       !142       Mertens,J.D.,Chang,Hanson,&Bowman,IJCK,23,173,1991
NH+O=NO+H                        5.50E+13   0.00          0       !143       Mertens,Chang,Hanson,&Bowman,IJCK,23,173,1991
NH+OH=HNO+H                      2.00E+13   0.00          0       !144       Miller&Bowman,Prog.EnergyCombust.Sci.,15,287,1989.
NH+NO=N2O+H                      3.13E+14  -0.45          0       !145       Miller and Melius, 24th Int.Symp.Comb.,1992 (Refitté pour format cti (A négatif))
NH+NO=N2+OH                      2.16E+13  -0.23          0       !146       Miller and Melius, 24th Int.Symp.Comb.,1992
NH+NO2=NO+HNO                    1.00E+11   0.50       4000       !147       CFM
NH+NH=N2+H+H                     5.10E+13   0.00          0       !148       Mertens,Chang,Hanson,&Bowman,IJCK,21,1049,1989.


! NH2 REACTIONS From Allen et al. Comb. Flame  109, 449 (1997)

NH2+O=HNO+H                      6.63E+14  -0.50          0       !149       Miller&Bowman,Prog.EnergyCombust.Sci.,15,287,1989.
NH2+O=NH+OH                      6.75E+12   0.00          0       !150       Miller&Bowman,Prog.EnergyCombust.Sci.,15,287,1989.
H+NH2=H2+NH	                 7.20E+05   2.32       1587       !151       Linder...Page, J. Phys. Chem., 99, 11458, 1995   apparently agrees with Roehrig's data
NH2+OH=NH+H2O                    4.00E+06   2.00       1000       !152       Lin, Wang, Lin, Melius, Int. J. Chem. Kinet., 22, 454, 1990.
NH2+NO=NNH+OH		         2.80E+13  -0.55          0       !153       Glarborg's DENOX mechanism
NH2+NO=N2+H2O                    5.16E+17  -1.82          0       !154       Glarborg's DENOX mechanism  (Refitté pour format cti (A négatif))
NH2+NO=N2O+H2                    5.00E+13   0.00      24640       !155       CFM
NH2+NO=HNO+NH                    1.00E+13   0.00       4000       !156       CFM
NH2+NO2=N2O+H2O                  3.28E+18  -2.20          0       !157       Miller & Bowman, Int. J. Chem. Kinet., 23, 289, 1991.
NH2+NH2=NH3+NH                   5.00E+13   0.00      10000       !158       Glarborg et al., Int. J. Chem. Kinet., 26, 421, 1994.
NH+NH2=N2H2+H                    3.16E+13   0.00        994       !159       Hanson
NH2+NH2=N2H2+H2                  3.98E+13   0.00      11922       !160       Hanson


! NH3 REACTIONS From Allen et al. Comb. Flame  109, 449 (1997)

NH3+M=NH2+H+M                    2.20E+16   0.00      93470       !161       Glarborg et al., Int. J. Chem. Kinet., 26, 421, 1994.
NH2+HO2=NH3+O2                   1.00E+13   0.00          0       !162       Glarborg et al., Int. J. Chem. Kinet., 26, 421, 1994.
NH2+O2=HNO+OH                    1.78E+12   0.00      14900       !163       Hanson & Salimian, in Combustion Chemistry, Gardiner, ed., Springer-Verlag, 1984.
NH3+O=NH2+OH                     9.40E+06   1.94       6460       !164       Glarborg et al., Int. J. Chem. Kinet., 26, 421, 1994.
NH3+H=NH2+H2                     6.40E+05   2.39      10170       !165       Glarborg et al., Int. J. Chem. Kinet., 26, 421, 1994.
NH3+OH=NH2+H2O                   2.04E+06   2.04        566       !166       Miller&Bowman,Prog.EnergyCombust.Sci.,15,287,1989.
NH3+HO2=NH2+H2O2                 3.00E+11   0.00      22000       !167       Glarborg et al., Int. J. Chem. Kinet., 26, 421, 1994. 
NH3+NH2=N2H3+H2                  7.94E+11   0.50      21559       !168       Hanson

 
! NNH REACTIONS From Allen et al. Comb. Flame  109, 449 (1997)

NNH+M=N2+H+M                     1.00E+14   0.00       3000       !169       Diau, Yu, Wagner, Lin, J.Phys. Chem. 98, 4034, 1994.
NNH+H=N2+H2                      1.00E+14   0.00          0       !170       Glarborg et al., Int. J. Chem. Kinet., 26, 421, 1994.
NNH+OH=N2+H2O                    5.00E+13   0.00          0       !171       Glarborg et al., Int. J. Chem. Kinet., 26, 421, 1994.
NNH+NO=N2+HNO                    5.00E+13   0.00          0       !172       Miller&Bowman,Prog.EnergyCombust.Sci.,15,287,1989.
NNH+NH=N2+NH2                    5.00E+13   0.00          0       !173       Glarborg et al., Int. J. Chem. Kinet., 26, 421, 1994.
NNH+NH2=N2+NH3                   5.00E+13   0.00          0       !174       Glarborg et al., Int. J. Chem. Kinet., 26, 421, 1994.
NNH+NNH=N2H2+N2                  1.00E+13   0.00       9935       !175       Hanson


! N2H2 REACTIONS From Allen et al. Comb. Flame  109, 449 (1997)

N2H2+H=NNH+H2                    1.00E+13   0.00        994       !176       Hanson
N2H2+NH=NNH+NH2                  1.00E+13   0.00        994       !177       Hanson
N2H2+M=NNH+H+M                   1.00E+16   0.00      49675       !178       Hanson
N2H2+M=NH+NH+M                   3.16E+16   0.00      99350       !179       Hanson
N2H2+NH2=NNH+NH3                 1.00E+13   0.00       3974       !180       Hanson
N2H2+NH2=NH+N2H3                 1.00E+11   0.50      33779       !181       Hanson
N2H2+N2H2=NNH+N2H3               1.00E+13   0.00       9935       !182       Hanson
N2H2+O=NNH+OH                    1.00E+11   0.50          0       !183       Hanson
N2H2+OH=NNH+H2O                  1.00E+13   0.00       1987       !184       Hanson
N2H2+HO2=NNH+H2O2                1.00E+13   0.00       1987       !185       Hanson


! N2H3 REACTIONS From Allen et al. Comb. Flame  109, 449 (1997)

N2H3+H=N2H2+H2                   1.00E+12   0.00       1987       !186       Hanson
N2H3+H=NH2+NH2                   1.58E+12   0.00          0       !187       Hanson
N2H3+H=NH+NH3                    1.00E+11   0.00          0       !188       Hanson
N2H3+NH2=N2H2+NH3                1.00E+11   0.50          0       !189       Hanson
N2H3+M=N2H2+H+M                  1.00E+16   0.00      49675       !190       Hanson
N2H3+M=NH2+NH+M                  1.00E+16   0.00      41727       !191       Hanson
N2H3+N2H2=N2H4+NNH               1.00E+13   0.00       9935       !192       Hanson
N2H3+O=N2H2+OH                   3.16E+11   0.50          0       !193       Hanson
N2H3+O=NNH+H2O                   3.16E+11   0.50          0       !194       Hanson
N2H3+OH=N2H2+H2O                 1.00E+13   0.00       1987       !195       Hanson
N2H3+HO2=N2H2+H2O2               1.00E+13   0.00       1987       !196       Hanson


! N2H4 REACTIONS From Allen et al. Comb. Flame  109, 449 (1997)

N2H4+NH2=N2H3+NH3                3.98E+11   0.50       1987       !197       Hanson
N2H4+H=N2H3+H2                   1.29E+13   0.00       2503       !198       Hanson
N2H4+H=NH2+NH3                   4.46E+09   0.00       3099       !199       Hanson
N2H4+M=NH2+NH2+M                 4.00E+15   0.00      40932       !200       Hanson
N2H4+M=N2H3+H+M                  1.00E+15   0.00      63584       !201       Hanson
N2H4+N2H2=N2H3+N2H3              2.50E+10   0.50      29805       !202       Hanson
N2H4+O=N2H2+H2O                  6.31E+13   0.00       1192       !203       Hanson
N2H4+O=N2H3+OH                   2.51E+12   0.00       1192       !204       Hanson
N2H4+OH=N2H3+H2O                 3.98E+13   0.00          0       !205       Hanson
N2H4+HO2=N2H3+H2O2               3.98E+13   0.00       1987       !206       Hanson





 CO+O(+M) = CO2(+M)                      1.360e+10    0.000   2382.89
   H2/2.00/ H2O/12.00/ CO2/3.60/ CO/1.75/ AR/0.70/ 
   LOW  /  1.170e+24   -2.790   4192.16 /
   TROE/       1     1.00 10000000.00 10000000.00 /
 CO+OH = CO2+H                           8.000e+11    0.140   7351.82
   DUPLICATE
 CO+OH = CO2+H                           8.780e+10    0.030    -16.73
   DUPLICATE



 CO+O2 = CO2+O                           1.120e+12    0.000  47700.76
 CO+HO2 = CO2+OH                         3.010e+13    0.000  22999.52
 HCO+H = CO+H2                           1.200e+14    0.000      0.00
 HCO+O = CO+OH                           3.000e+13    0.000      0.00
 HCO+O = CO2+H                           3.000e+13    0.000      0.00
 HCO+OH = CO+H2O                         3.020e+13    0.000      0.00
 HCO+M = CO+H+M                          1.870e+17   -1.000  17000.48
   H2/2.00/ H2O/0.00/ CO2/3.60/ CO/1.75/ 
 HCO+H2O = CO+H+H2O                      2.240e+18   -1.000  17000.48
 HCO+O2 = CO+HO2                         5.310e+10    0.690   -124.28
 C+OH = CO+H                             5.000e+13    0.000      0.00
 C+O2 = CO+O                             5.800e+13    0.000    576.00
 CH+H = C+H2                             1.650e+14    0.000      0.00
 CH+O = CO+H                             5.700e+13    0.000      0.00
 CH+OH = HCO+H                           3.000e+13    0.000      0.00
 CH+H2 = T-CH2+H                         1.080e+14    0.000   3109.46
 CH+H2(+M) = CH3(+M)                     1.970e+12    0.430   -370.46
   H2/2.00/ H2O/6.00/ CO2/2.00/ CO/1.50/ AR/0.70/ CH4/2.00/ C2H6/3.00/ 
   
   LOW  /  4.820e+25   -2.800    590.34 /
   TROE/   0.578   122.00   2535.00   9365.00 /
 CH+H2O = CH2O+H                         5.710e+12    0.000   -755.26
 CH+O2 = HCO+O                           6.710e+13    0.000      0.00
 CH+CO(+M) = HCCO(+M)                    5.000e+13    0.000      0.00
   H2/2.00/ H2O/6.00/ CO2/2.00/ CO/1.50/ AR/0.70/ CH4/2.00/ C2H6/3.00/ 
   
   LOW  /  2.690e+28   -3.740   1935.95 /
   TROE/  0.5757   237.00   1652.00   5069.00 /
 CH+CO2 = HCO+CO                         1.900e+14    0.000  15791.11
 CO+H2(+M) = CH2O(+M)                    4.300e+07    1.500  79600.86
   H2/2.00/ H2O/6.00/ CO2/2.00/ CO/1.50/ AR/0.70/ CH4/2.00/ C2H6/3.00/ 
   