ELEMENTS
AR HE H O
END
SPECIES
AR                HE                H                 O2
OH                O                 H2                H2O               HO2
H2O2
END
THERMO
300      1000      5000
AR                000000AR  1               G       300      5000    1000      1
 2.50000000E+00 0.00000000E+00 0.00000000E+00 0.00000000E+00 0.00000000E+00    2
-7.45375000E+02 4.36600000E+00 2.50000000E+00 0.00000000E+00 0.00000000E+00    3
 0.00000000E+00 0.00000000E+00-7.45375000E+02 4.36600000E+00                   4
HE                000000HE  1               G       300      5000    1000      1
 2.50000000E+00 0.00000000E+00 0.00000000E+00 0.00000000E+00 0.00000000E+00    2
-7.45375000E+02 9.28723974E-01 2.50000000E+00 0.00000000E+00 0.00000000E+00    3
 0.00000000E+00 0.00000000E+00-7.45375000E+02 9.28723974E-01                   4
H                 000000H   1               G       300      5000    1000      1
 2.50000001E+00-2.30842973E-11 1.61561948E-14-4.73515235E-18 4.98197357E-22    2
 2.54736599E+04-4.46682914E-01 2.50000000E+00 7.05332819E-13-1.99591964E-15    3
 2.30081632E-18-9.27732332E-22 2.54736599E+04-4.46682853E-01                   4
O2                000000O   2               G       300      5000    1000      1
 3.28253784E+00 1.48308754E-03-7.57966669E-07 2.09470555E-10-2.16717794E-14    2
-1.08845772E+03 5.45323129E+00 3.78245636E+00-2.99673416E-03 9.84730201E-06    3
-9.68129509E-09 3.24372837E-12-1.06394356E+03 3.65767573E+00                   4
OH                000000H   1O   1          G       300      5000    1000      1
 2.86472886E+00 1.05650448E-03-2.59082758E-07 3.05218674E-11-1.33195876E-15    2
 3.71885774E+03 5.70164073E+00 4.12530561E+00-3.22544939E-03 6.52764691E-06    3
-5.79853643E-09 2.06237379E-12 3.38153812E+03-6.90432960E-01                   4
O                 000000O   1               G       300      5000    1000      1
 2.56942078E+00-8.59741137E-05 4.19484589E-08-1.00177799E-11 1.22833691E-15    2
 2.92175791E+04 4.78433864E+00 3.16826710E+00-3.27931884E-03 6.64306396E-06    3
-6.12806624E-09 2.11265971E-12 2.91222592E+04 2.05193346E+00                   4
H2                000000H   2               G       300      5000    1000      1
 3.33727920E+00-4.94024731E-05 4.99456778E-07-1.79566394E-10 2.00255376E-14    2
-9.50158922E+02-3.20502331E+00 2.34433112E+00 7.98052075E-03-1.94781510E-05    3
 2.01572094E-08-7.37611761E-12-9.17935173E+02 6.83010238E-01                   4
H2O               000000H   2O   1          G       300      5000    1000      1
 3.03399249E+00 2.17691804E-03-1.64072518E-07-9.70419870E-11 1.68200992E-14    2
-3.00042971E+04 4.96677010E+00 4.19864056E+00-2.03643410E-03 6.52040211E-06    3
-5.48797062E-09 1.77197817E-12-3.02937267E+04-8.49032208E-01                   4
HO2               000000H   1O   2          G       300      5000    1000      1
 4.01721090E+00 2.23982013E-03-6.33658150E-07 1.14246370E-10-1.07908535E-14    2
 1.11856713E+02 3.78510215E+00 4.30179801E+00-4.74912051E-03 2.11582891E-05    3
-2.42763894E-08 9.29225124E-12 2.94808040E+02 3.71666245E+00                   4
H2O2              000000H   2O   2          G       300      5000    1000      1
 4.16500285E+00 4.90831694E-03-1.90139225E-06 3.71185986E-10-2.87908305E-14    2
-1.78617877E+04 2.91615662E+00 4.27611269E+00-5.42822417E-04 1.67335701E-05    3
-2.15770813E-08 8.62454363E-12-1.77025821E+04 3.43505074E+00                   4
END
REACTIONS
H+O2<=>OH+O                              3.520e+16   -0.700  17069.79
H2+O<=>OH+H                              5.060e+04    2.670   6290.63
H2+OH<=>H2O+H                            1.170e+09    1.300   3635.28
H2O+O<=>2 OH                             7.000e+05    2.330  14548.28
2 H+M<=>H2+M                             1.300e+18   -1.000      0.00
AR/0.50/ HE/0.50/ H2/2.50/ H2O/12.00/
H+OH+M<=>H2O+M                           4.000e+22   -2.000      0.00
AR/0.38/ HE/0.38/ H2/2.50/ H2O/12.00/
2 O+M<=>O2+M                             6.170e+15   -0.500      0.00
AR/0.20/ HE/0.20/ H2/2.50/ H2O/12.00/
H+O+M<=>OH+M                             4.710e+18   -1.000      0.00
AR/0.75/ HE/0.75/ H2/2.50/ H2O/12.00/
H+O2(+M)<=>HO2(+M)                       4.650e+12    0.440      0.00
AR/0.70/ HE/0.70/ H2/2.50/ H2O/16.00/
     LOW  /  5.750e+19   -1.400      0.00 /
     TROE/     0.5    1e-30     1e+30        /
HO2+H<=>2 OH                             7.080e+13    0.000    294.93
HO2+H<=>H2+O2                            1.660e+13    0.000    822.90
HO2+H<=>H2O+O                            3.100e+13    0.000   1720.84
HO2+O<=>OH+O2                            2.000e+13    0.000      0.00
HO2+OH<=>H2O+O2                          7.000e+12    0.000  -1094.65
DUPLICATE
HO2+OH<=>H2O+O2                          4.500e+14    0.000  10929.73
DUPLICATE
2 OH(+M)<=>H2O2(+M)                      9.550e+13   -0.270      0.00
AR/0.70/ HE/0.40/ H2/2.50/ H2O/6.00/ H2O2/6.00/
     LOW  /  2.760e+25   -3.200      0.00 /
     TROE/    0.57    1e+30     1e-30        /
2 HO2<=>H2O2+O2                          1.030e+14    0.000  11042.07
DUPLICATE
2 HO2<=>H2O2+O2                          1.940e+11    0.000  -1408.94
DUPLICATE
H2O2+H<=>HO2+H2                          2.300e+13    0.000   7950.05
H2O2+H<=>H2O+OH                          1.000e+13    0.000   3585.09
H2O2+OH<=>H2O+HO2                        1.740e+12    0.000   1434.03
DUPLICATE
H2O2+OH<=>H2O+HO2                        7.590e+13    0.000   7272.94
DUPLICATE
H2O2+O<=>HO2+OH                          9.630e+06    2.000   3991.40
END
